data/pglib_opf_case588_sdet_storage.m
%%%%%%%%%%%%%%%%%%%%%%%%%%%%%%%%%%%%%%%%%%%%%%%%%%%%%%%%%%%%%%%%%%%%%%%%%%%
%%%%                                                                  %%%%%
%%%%    IEEE PES Power Grid Library - Optimal Power Flow - v23.07     %%%%%
%%%%          (https://github.com/power-grid-lib/pglib-opf)           %%%%%
%%%%               Benchmark Group - Typical Operations               %%%%%
%%%%                         23 - July - 2023                         %%%%%
%%%%                                                                  %%%%%
%%%%%%%%%%%%%%%%%%%%%%%%%%%%%%%%%%%%%%%%%%%%%%%%%%%%%%%%%%%%%%%%%%%%%%%%%%%
%
%   A 500 bus model created by the Sustainable Data Evolution Technology (SDET)
%   tool.
%
%   https://egriddata.org/group/sustainable-data-evolution-technology-sdet
%
%   Developed by Ruisheng Diao
%   Provided in the public domain. March, 2018
%
% Modified to have additional storage capacity and increased gencost
function mpc = pglib_opf_case588_sdet
mpc.version = '2';
mpc.baseMVA = 100.0;

%% bus data
%	bus_i	type	Pd	Qd	Gs	Bs	area	Vm	Va	baseKV	zone	Vmax	Vmin
mpc.bus = [
	1	 1	 89.79	 28.55	 0.0	 0.0	 1	    1.00000	    0.00000	 345.0	 1	    1.10000	    0.90000;
	2	 1	 0.0	 0.0	 0.0	 -20.0	 1	    1.00000	    0.00000	 345.0	 1	    1.10000	    0.90000;
	3	 2	 0.0	 0.0	 0.0	 62.35	 1	    1.00000	    0.00000	 500.0	 1	    1.10000	    0.90000;
	4	 2	 0.0	 0.0	 0.0	 0.0	 1	    1.00000	    0.00000	 500.0	 1	    1.10000	    0.90000;
	5	 1	 32.47	 85.89	 0.0	 0.0	 1	    1.00000	    0.00000	 500.0	 1	    1.10000	    0.90000;
	6	 1	 0.0	 0.0	 0.0	 0.0	 1	    1.00000	    0.00000	 500.0	 1	    1.10000	    0.90000;
	7	 1	 0.0	 0.0	 0.0	 0.0	 1	    1.00000	    0.00000	 345.0	 1	    1.10000	    0.90000;
	8	 1	 0.0	 0.0	 0.0	 0.0	 1	    1.00000	    0.00000	 345.0	 1	    1.10000	    0.90000;
	9	 2	 0.0	 0.0	 0.0	 8.24	 1	    1.00000	    0.00000	 345.0	 1	    1.10000	    0.90000;
	10	 2	 0.0	 0.0	 0.0	 0.0	 1	    1.00000	    0.00000	 345.0	 1	    1.10000	    0.90000;
	11	 1	 0.0	 0.0	 0.0	 31.41	 1	    1.00000	    0.00000	 345.0	 1	    1.10000	    0.90000;
	12	 1	 0.0	 0.0	 0.0	 83.61	 1	    1.00000	    0.00000	 500.0	 1	    1.10000	    0.90000;
	13	 1	 0.0	 0.0	 0.0	 70.0	 1	    1.00000	    0.00000	 500.0	 1	    1.10000	    0.90000;
	14	 1	 0.0	 0.0	 0.0	 0.0	 1	    1.00000	    0.00000	 500.0	 1	    1.10000	    0.90000;
	15	 2	 11.0	 40.0	 0.0	 0.0	 1	    1.00000	    0.00000	 500.0	 1	    1.10000	    0.90000;
	16	 2	 5.0	 10.0	 0.0	 0.0	 1	    1.00000	    0.00000	 500.0	 1	    1.10000	    0.90000;
	17	 1	 52.71	 60.23	 0.0	 0.0	 1	    1.00000	    0.00000	 345.0	 1	    1.10000	    0.90000;
	18	 1	 6.93	 3.11	 0.0	 0.0	 1	    1.00000	    0.00000	 138.0	 1	    1.10000	    0.90000;
	19	 2	 14.65	 1.0	 0.0	 0.0	 1	    1.00000	    0.00000	 138.0	 1	    1.10000	    0.90000;
	20	 2	 8.14	 1.32	 0.0	 0.0	 1	    1.00000	    0.00000	 138.0	 1	    1.10000	    0.90000;
	21	 1	 14.17	 4.22	 0.0	 0.0	 1	    1.00000	    0.00000	 138.0	 1	    1.10000	    0.90000;
	22	 2	 4.22	 1.0	 0.0	 0.0	 1	    1.00000	    0.00000	 138.0	 1	    1.10000	    0.90000;
	23	 1	 0.0	 0.0	 0.0	 26.67	 1	    1.00000	    0.00000	 138.0	 1	    1.10000	    0.90000;
	24	 1	 0.0	 0.0	 0.0	 48.6	 1	    1.00000	    0.00000	 32.0	 1	    1.10000	    0.90000;
	25	 1	 0.0	 0.0	 0.0	 0.0	 1	    1.00000	    0.00000	 138.0	 1	    1.10000	    0.90000;
	26	 1	 31.97	 20.83	 0.0	 0.0	 1	    1.00000	    0.00000	 138.0	 1	    1.10000	    0.90000;
	27	 1	 5.22	 2.11	 0.0	 0.0	 1	    1.00000	    0.00000	 138.0	 1	    1.10000	    0.90000;
	28	 1	 2.61	 1.0	 0.0	 0.0	 1	    1.00000	    0.00000	 138.0	 1	    1.10000	    0.90000;
	29	 2	 0.01	 0.01	 0.0	 0.0	 1	    1.00000	    0.00000	 138.0	 1	    1.10000	    0.90000;
	30	 2	 0.01	 0.01	 0.0	 0.0	 1	    1.00000	    0.00000	 138.0	 1	    1.10000	    0.90000;
	31	 1	 15.67	 5.22	 0.0	 0.0	 1	    1.00000	    0.00000	 138.0	 1	    1.10000	    0.90000;
	32	 1	 16.78	 4.72	 0.0	 0.0	 1	    1.00000	    0.00000	 138.0	 1	    1.10000	    0.90000;
	33	 1	 0.0	 0.0	 0.0	 45.0	 1	    1.00000	    0.00000	 16.0	 1	    1.10000	    0.90000;
	34	 1	 4.22	 0.5	 0.0	 0.0	 1	    1.00000	    0.00000	 138.0	 1	    1.10000	    0.90000;
	35	 1	 9.95	 2.11	 0.0	 0.0	 1	    1.00000	    0.00000	 138.0	 1	    1.10000	    0.90000;
	36	 1	 10.85	 1.0	 0.0	 0.0	 1	    1.00000	    0.00000	 138.0	 1	    1.10000	    0.90000;
	37	 2	 14.67	 3.11	 0.0	 0.0	 1	    1.00000	    0.00000	 138.0	 1	    1.10000	    0.90000;
	38	 1	 7.54	 1.0	 0.0	 0.0	 1	    1.00000	    0.00000	 138.0	 1	    1.10000	    0.90000;
	39	 1	 2.11	 0.5	 0.0	 0.0	 1	    1.00000	    0.00000	 138.0	 1	    1.10000	    0.90000;
	40	 1	 2.11	 0.5	 0.0	 0.0	 1	    1.00000	    0.00000	 138.0	 1	    1.10000	    0.90000;
	41	 1	 8.74	 3.11	 0.0	 0.0	 1	    1.00000	    0.00000	 138.0	 1	    1.10000	    0.90000;
	42	 1	 5.73	 1.0	 0.0	 0.0	 1	    1.00000	    0.00000	 138.0	 1	    1.10000	    0.90000;
	43	 1	 43.38	 6.25	 0.0	 0.0	 1	    1.00000	    0.00000	 138.0	 1	    1.10000	    0.90000;
	44	 2	 9.45	 2.61	 0.0	 0.0	 1	    1.00000	    0.00000	 138.0	 1	    1.10000	    0.90000;
	45	 2	 42.03	 12.76	 0.0	 0.0	 1	    1.00000	    0.00000	 138.0	 1	    1.10000	    0.90000;
	46	 1	 15.67	 2.61	 0.0	 0.0	 1	    1.00000	    0.00000	 138.0	 1	    1.10000	    0.90000;
	47	 1	 19.89	 6.83	 0.0	 0.0	 1	    1.00000	    0.00000	 138.0	 1	    1.10000	    0.90000;
	48	 1	 8.34	 2.71	 0.0	 0.0	 1	    1.00000	    0.00000	 138.0	 1	    1.10000	    0.90000;
	49	 2	 16.78	 6.33	 0.0	 0.0	 1	    1.00000	    0.00000	 138.0	 1	    1.10000	    0.90000;
	50	 1	 13.14	 1.26	 0.0	 0.0	 1	    1.00000	    0.00000	 138.0	 1	    1.10000	    0.90000;
	51	 1	 5.22	 0.5	 0.0	 0.0	 1	    1.00000	    0.00000	 138.0	 1	    1.10000	    0.90000;
	52	 1	 0.0	 0.0	 0.0	 -16.07	 1	    1.00000	    0.00000	 138.0	 1	    1.10000	    0.90000;
	53	 1	 68.66	 4.97	 0.0	 -2.01	 1	    1.00000	    0.00000	 138.0	 1	    1.10000	    0.90000;
	54	 2	 9.45	 1.0	 0.0	 -0.93	 1	    1.00000	    0.00000	 138.0	 1	    1.10000	    0.90000;
	55	 1	 8.34	 3.11	 0.0	 0.0	 1	    1.00000	    0.00000	 138.0	 1	    1.10000	    0.90000;
	56	 1	 0.0	 0.0	 0.0	 0.0	 1	    1.00000	    0.00000	 138.0	 1	    1.10000	    0.90000;
	57	 1	 19.16	 2.01	 0.0	 0.0	 1	    1.00000	    0.00000	 138.0	 1	    1.10000	    0.90000;
	58	 2	 30.44	 4.22	 0.0	 0.0	 1	    1.00000	    0.00000	 138.0	 1	    1.10000	    0.90000;
	59	 1	 18.89	 4.72	 0.0	 0.0	 1	    1.00000	    0.00000	 138.0	 1	    1.10000	    0.90000;
	60	 2	 11.55	 1.0	 0.0	 0.0	 1	    1.00000	    0.00000	 138.0	 1	    1.10000	    0.90000;
	61	 1	 17.78	 4.22	 0.0	 0.0	 1	    1.00000	    0.00000	 138.0	 1	    1.10000	    0.90000;
	62	 1	 0.0	 0.0	 0.0	 0.0	 1	    1.00000	    0.00000	 138.0	 1	    1.10000	    0.90000;
	63	 1	 0.0	 0.0	 0.0	 -15.19	 1	    1.00000	    0.00000	 138.0	 1	    1.10000	    0.90000;
	64	 1	 0.0	 0.0	 0.0	 -14.11	 1	    1.00000	    0.00000	 138.0	 1	    1.10000	    0.90000;
	65	 1	 0.0	 0.0	 0.0	 0.0	 1	    1.00000	    0.00000	 500.0	 1	    1.10000	    0.90000;
	66	 1	 0.0	 0.0	 0.0	 30.47	 2	    1.00000	    0.00000	 345.0	 2	    1.10000	    0.90000;
	67	 1	 0.0	 0.0	 0.0	 -20.0	 2	    1.00000	    0.00000	 345.0	 2	    1.10000	    0.90000;
	68	 2	 0.0	 0.0	 0.0	 62.48	 2	    1.00000	    0.00000	 500.0	 2	    1.10000	    0.90000;
	69	 2	 0.0	 0.0	 0.0	 0.0	 2	    1.00000	    0.00000	 500.0	 2	    1.10000	    0.90000;
	70	 1	 32.47	 85.89	 0.0	 0.0	 2	    1.00000	    0.00000	 500.0	 2	    1.10000	    0.90000;
	71	 1	 0.0	 0.0	 0.0	 0.0	 2	    1.00000	    0.00000	 500.0	 2	    1.10000	    0.90000;
	72	 1	 0.0	 0.0	 0.0	 0.0	 2	    1.00000	    0.00000	 345.0	 2	    1.10000	    0.90000;
	73	 1	 0.0	 0.0	 0.0	 0.0	 2	    1.00000	    0.00000	 345.0	 2	    1.10000	    0.90000;
	74	 2	 0.0	 0.0	 0.0	 -84.68	 2	    1.00000	    0.00000	 345.0	 2	    1.10000	    0.90000;
	75	 2	 0.0	 0.0	 0.0	 0.0	 2	    1.00000	    0.00000	 345.0	 2	    1.10000	    0.90000;
	76	 1	 42.84	 29.61	 0.0	 0.0	 2	    1.00000	    0.00000	 345.0	 2	    1.10000	    0.90000;
	77	 1	 0.0	 0.0	 0.0	 83.62	 2	    1.00000	    0.00000	 500.0	 2	    1.10000	    0.90000;
	78	 1	 0.0	 0.0	 0.0	 70.0	 2	    1.00000	    0.00000	 500.0	 2	    1.10000	    0.90000;
	79	 1	 0.0	 0.0	 0.0	 0.0	 2	    1.00000	    0.00000	 500.0	 2	    1.10000	    0.90000;
	80	 2	 11.0	 40.0	 0.0	 0.0	 2	    1.00000	    0.00000	 500.0	 2	    1.10000	    0.90000;
	81	 2	 5.0	 10.0	 0.0	 0.0	 2	    1.00000	    0.00000	 500.0	 2	    1.10000	    0.90000;
	82	 1	 52.71	 60.23	 0.0	 0.0	 2	    1.00000	    0.00000	 345.0	 2	    1.10000	    0.90000;
	83	 1	 6.93	 3.11	 0.0	 0.0	 2	    1.00000	    0.00000	 138.0	 2	    1.10000	    0.90000;
	84	 2	 14.65	 1.0	 0.0	 0.0	 2	    1.00000	    0.00000	 138.0	 2	    1.10000	    0.90000;
	85	 2	 8.14	 1.32	 0.0	 0.0	 2	    1.00000	    0.00000	 138.0	 2	    1.10000	    0.90000;
	86	 1	 14.17	 4.22	 0.0	 0.0	 2	    1.00000	    0.00000	 138.0	 2	    1.10000	    0.90000;
	87	 2	 4.22	 1.0	 0.0	 0.0	 2	    1.00000	    0.00000	 138.0	 2	    1.10000	    0.90000;
	88	 1	 61.49	 28.47	 0.0	 0.0	 2	    1.00000	    0.00000	 138.0	 2	    1.10000	    0.90000;
	89	 1	 0.0	 0.0	 0.0	 48.6	 2	    1.00000	    0.00000	 32.0	 2	    1.10000	    0.90000;
	90	 1	 0.0	 0.0	 0.0	 0.0	 2	    1.00000	    0.00000	 138.0	 2	    1.10000	    0.90000;
	91	 1	 3.95	 20.83	 0.0	 0.0	 2	    1.00000	    0.00000	 138.0	 2	    1.10000	    0.90000;
	92	 1	 5.22	 2.11	 0.0	 0.0	 2	    1.00000	    0.00000	 138.0	 2	    1.10000	    0.90000;
	93	 1	 2.61	 1.0	 0.0	 0.0	 2	    1.00000	    0.00000	 138.0	 2	    1.10000	    0.90000;
	94	 2	 0.01	 0.01	 0.0	 0.0	 2	    1.00000	    0.00000	 138.0	 2	    1.10000	    0.90000;
	95	 2	 0.01	 0.01	 0.0	 0.0	 2	    1.00000	    0.00000	 138.0	 2	    1.10000	    0.90000;
	96	 1	 15.67	 5.22	 0.0	 0.0	 2	    1.00000	    0.00000	 138.0	 2	    1.10000	    0.90000;
	97	 1	 16.78	 4.72	 0.0	 0.0	 2	    1.00000	    0.00000	 138.0	 2	    1.10000	    0.90000;
	98	 1	 0.0	 0.0	 0.0	 45.0	 2	    1.00000	    0.00000	 16.0	 2	    1.10000	    0.90000;
	99	 1	 4.22	 0.5	 0.0	 0.0	 2	    1.00000	    0.00000	 138.0	 2	    1.10000	    0.90000;
	100	 1	 9.95	 2.11	 0.0	 0.0	 2	    1.00000	    0.00000	 138.0	 2	    1.10000	    0.90000;
	101	 1	 10.85	 1.0	 0.0	 0.0	 2	    1.00000	    0.00000	 138.0	 2	    1.10000	    0.90000;
	102	 2	 14.67	 3.11	 0.0	 0.0	 2	    1.00000	    0.00000	 138.0	 2	    1.10000	    0.90000;
	103	 1	 7.54	 1.0	 0.0	 0.0	 2	    1.00000	    0.00000	 138.0	 2	    1.10000	    0.90000;
	104	 1	 2.11	 0.5	 0.0	 0.0	 2	    1.00000	    0.00000	 138.0	 2	    1.10000	    0.90000;
	105	 1	 2.11	 0.5	 0.0	 0.0	 2	    1.00000	    0.00000	 138.0	 2	    1.10000	    0.90000;
	106	 1	 8.74	 3.11	 0.0	 0.0	 2	    1.00000	    0.00000	 138.0	 2	    1.10000	    0.90000;
	107	 1	 5.73	 1.0	 0.0	 0.0	 2	    1.00000	    0.00000	 138.0	 2	    1.10000	    0.90000;
	108	 1	 43.11	 6.25	 0.0	 0.0	 2	    1.00000	    0.00000	 138.0	 2	    1.10000	    0.90000;
	109	 2	 9.45	 2.61	 0.0	 0.0	 2	    1.00000	    0.00000	 138.0	 2	    1.10000	    0.90000;
	110	 2	 42.03	 12.76	 0.0	 0.0	 2	    1.00000	    0.00000	 138.0	 2	    1.10000	    0.90000;
	111	 1	 15.67	 2.61	 0.0	 0.0	 2	    1.00000	    0.00000	 138.0	 2	    1.10000	    0.90000;
	112	 1	 19.89	 6.83	 0.0	 0.0	 2	    1.00000	    0.00000	 138.0	 2	    1.10000	    0.90000;
	113	 1	 8.34	 2.71	 0.0	 0.0	 2	    1.00000	    0.00000	 138.0	 2	    1.10000	    0.90000;
	114	 2	 16.78	 6.33	 0.0	 0.0	 2	    1.00000	    0.00000	 138.0	 2	    1.10000	    0.90000;
	115	 1	 13.14	 1.26	 0.0	 0.0	 2	    1.00000	    0.00000	 138.0	 2	    1.10000	    0.90000;
	116	 1	 5.22	 0.5	 0.0	 0.0	 2	    1.00000	    0.00000	 138.0	 2	    1.10000	    0.90000;
	117	 1	 0.0	 0.0	 0.0	 -16.07	 2	    1.00000	    0.00000	 138.0	 2	    1.10000	    0.90000;
	118	 1	 68.66	 4.97	 0.0	 -2.01	 2	    1.00000	    0.00000	 138.0	 2	    1.10000	    0.90000;
	119	 2	 9.45	 1.0	 0.0	 1.92	 2	    1.00000	    0.00000	 138.0	 2	    1.10000	    0.90000;
	120	 1	 8.34	 3.11	 0.0	 0.0	 2	    1.00000	    0.00000	 138.0	 2	    1.10000	    0.90000;
	121	 1	 0.0	 0.0	 0.0	 0.0	 2	    1.00000	    0.00000	 138.0	 2	    1.10000	    0.90000;
	122	 1	 19.16	 2.01	 0.0	 0.0	 2	    1.00000	    0.00000	 138.0	 2	    1.10000	    0.90000;
	123	 2	 30.44	 4.22	 0.0	 0.0	 2	    1.00000	    0.00000	 138.0	 2	    1.10000	    0.90000;
	124	 1	 18.89	 4.72	 0.0	 0.0	 2	    1.00000	    0.00000	 138.0	 2	    1.10000	    0.90000;
	125	 2	 11.55	 1.0	 0.0	 0.0	 2	    1.00000	    0.00000	 138.0	 2	    1.10000	    0.90000;
	126	 1	 17.78	 4.22	 0.0	 0.0	 2	    1.00000	    0.00000	 138.0	 2	    1.10000	    0.90000;
	127	 1	 0.0	 0.0	 0.0	 0.0	 2	    1.00000	    0.00000	 138.0	 2	    1.10000	    0.90000;
	128	 1	 0.0	 0.0	 0.0	 -15.19	 2	    1.00000	    0.00000	 138.0	 2	    1.10000	    0.90000;
	129	 1	 0.0	 0.0	 0.0	 -14.11	 2	    1.00000	    0.00000	 138.0	 2	    1.10000	    0.90000;
	130	 1	 0.0	 0.0	 0.0	 0.0	 2	    1.00000	    0.00000	 500.0	 2	    1.10000	    0.90000;
	131	 1	 40.59	 70.73	 0.0	 0.0	 3	    1.00000	    0.00000	 345.0	 3	    1.10000	    0.90000;
	132	 2	 0.0	 0.0	 0.0	 -176.98	 3	    1.00000	    0.00000	 345.0	 3	    1.10000	    0.90000;
	133	 2	 0.0	 0.0	 0.0	 0.0	 3	    1.00000	    0.00000	 500.0	 3	    1.10000	    0.90000;
	134	 1	 0.0	 0.0	 0.0	 0.0	 3	    1.00000	    0.00000	 500.0	 3	    1.10000	    0.90000;
	135	 2	 0.0	 0.0	 0.0	 17.28	 3	    1.00000	    0.00000	 500.0	 3	    1.10000	    0.90000;
	136	 1	 8.38	 1.2	 0.0	 0.0	 3	    1.00000	    0.00000	 138.0	 3	    1.10000	    0.90000;
	137	 1	 4.83	 1.1	 0.0	 0.0	 3	    1.00000	    0.00000	 138.0	 3	    1.10000	    0.90000;
	138	 2	 0.0	 0.0	 0.0	 0.0	 3	    1.00000	    0.00000	 138.0	 3	    1.10000	    0.90000;
	139	 1	 11.55	 5.82	 0.0	 0.0	 3	    1.00000	    0.00000	 138.0	 3	    1.10000	    0.90000;
	140	 1	 13.16	 4.92	 0.0	 0.0	 3	    1.00000	    0.00000	 138.0	 3	    1.10000	    0.90000;
	141	 1	 26.04	 3.35	 0.0	 0.0	 3	    1.00000	    0.00000	 138.0	 3	    1.10000	    0.90000;
	142	 2	 12.56	 2.11	 0.0	 13.51	 3	    1.00000	    0.00000	 138.0	 3	    1.10000	    0.90000;
	143	 1	 4.72	 0.7	 0.0	 0.0	 3	    1.00000	    0.00000	 138.0	 3	    1.10000	    0.90000;
	144	 2	 9.45	 -3.27	 0.0	 0.0	 3	    1.00000	    0.00000	 138.0	 3	    1.10000	    0.90000;
	145	 1	 10.15	 4.22	 0.0	 0.0	 3	    1.00000	    0.00000	 138.0	 3	    1.10000	    0.90000;
	146	 1	 0.0	 0.0	 0.0	 0.0	 3	    1.00000	    0.00000	 138.0	 3	    1.10000	    0.90000;
	147	 1	 0.0	 0.0	 0.0	 0.0	 3	    1.00000	    0.00000	 138.0	 3	    1.10000	    0.90000;
	148	 1	 0.0	 0.0	 0.0	 0.0	 3	    1.00000	    0.00000	 138.0	 3	    1.10000	    0.90000;
	149	 1	 0.0	 0.0	 0.0	 60.0	 3	    1.00000	    0.00000	 16.0	 3	    1.10000	    0.90000;
	150	 1	 17.78	 4.22	 0.0	 0.0	 3	    1.00000	    0.00000	 138.0	 3	    1.10000	    0.90000;
	151	 1	 8.04	 4.12	 0.0	 0.0	 3	    1.00000	    0.00000	 138.0	 3	    1.10000	    0.90000;
	152	 2	 0.01	 0.01	 0.0	 0.0	 3	    1.00000	    0.00000	 138.0	 3	    1.10000	    0.90000;
	153	 2	 73.33	 31.39	 0.0	 0.0	 3	    1.00000	    0.00000	 138.0	 3	    1.10000	    0.90000;
	154	 1	 62.9	 26.21	 0.0	 0.0	 3	    1.00000	    0.00000	 138.0	 3	    1.10000	    0.90000;
	155	 1	 0.0	 0.0	 0.0	 0.0	 3	    1.00000	    0.00000	 138.0	 3	    1.10000	    0.90000;
	156	 1	 8.34	 2.61	 0.0	 0.0	 3	    1.00000	    0.00000	 138.0	 3	    1.10000	    0.90000;
	157	 2	 5.12	 0.68	 0.0	 0.0	 3	    1.00000	    0.00000	 138.0	 3	    1.10000	    0.90000;
	158	 1	 15.17	 4.72	 0.0	 0.0	 3	    1.00000	    0.00000	 138.0	 3	    1.10000	    0.90000;
	159	 2	 13.66	 6.33	 0.0	 2.71	 3	    1.00000	    0.00000	 138.0	 3	    1.10000	    0.90000;
	160	 2	 8.94	 2.32	 0.0	 3.95	 3	    1.00000	    0.00000	 138.0	 3	    1.10000	    0.90000;
	161	 1	 13.99	 11.8	 0.0	 0.0	 3	    1.00000	    0.00000	 138.0	 3	    1.10000	    0.90000;
	162	 1	 9.45	 2.21	 0.0	 0.0	 3	    1.00000	    0.00000	 138.0	 3	    1.10000	    0.90000;
	163	 1	 11.55	 2.61	 0.0	 0.0	 3	    1.00000	    0.00000	 138.0	 3	    1.10000	    0.90000;
	164	 1	 3.92	 1.61	 0.0	 0.0	 3	    1.00000	    0.00000	 138.0	 3	    1.10000	    0.90000;
	165	 1	 16.28	 5.22	 0.0	 3.33	 3	    1.00000	    0.00000	 138.0	 3	    1.10000	    0.90000;
	166	 1	 12.46	 5.82	 0.0	 0.0	 3	    1.00000	    0.00000	 138.0	 3	    1.10000	    0.90000;
	167	 2	 0.0	 0.0	 0.0	 15.41	 3	    1.00000	    0.00000	 138.0	 3	    1.10000	    0.90000;
	168	 2	 12.56	 4.22	 0.0	 -33.87	 3	    1.00000	    0.00000	 138.0	 3	    1.10000	    0.90000;
	169	 1	 23.61	 4.72	 0.0	 0.0	 3	    1.00000	    0.00000	 138.0	 3	    1.10000	    0.90000;
	170	 1	 0.1	 0.1	 0.0	 0.0	 3	    1.00000	    0.00000	 138.0	 3	    1.10000	    0.90000;
	171	 1	 0.1	 0.1	 0.0	 0.0	 3	    1.00000	    0.00000	 138.0	 3	    1.10000	    0.90000;
	172	 2	 9.45	 2.31	 0.0	 0.0	 3	    1.00000	    0.00000	 138.0	 3	    1.10000	    0.90000;
	173	 1	 13.56	 6.23	 0.0	 0.0	 3	    1.00000	    0.00000	 138.0	 3	    1.10000	    0.90000;
	174	 1	 6.83	 2.61	 0.0	 0.0	 3	    1.00000	    0.00000	 138.0	 3	    1.10000	    0.90000;
	175	 1	 4.72	 2.61	 0.0	 0.0	 3	    1.00000	    0.00000	 138.0	 3	    1.10000	    0.90000;
	176	 1	 6.33	 0.9	 0.0	 0.0	 3	    1.00000	    0.00000	 138.0	 3	    1.10000	    0.90000;
	177	 1	 4.12	 2.51	 0.0	 0.0	 3	    1.00000	    0.00000	 138.0	 3	    1.10000	    0.90000;
	178	 2	 0.01	 0.01	 0.0	 0.0	 3	    1.00000	    0.00000	 138.0	 3	    1.10000	    0.90000;
	179	 1	 44.31	 -3.0	 0.0	 0.0	 3	    1.00000	    0.00000	 138.0	 3	    1.10000	    0.90000;
	180	 2	 6.33	 1.57	 0.0	 1.75	 3	    1.00000	    0.00000	 138.0	 3	    1.10000	    0.90000;
	181	 1	 61.44	 45.53	 0.0	 0.0	 4	    1.00000	    0.00000	 345.0	 4	    1.10000	    0.90000;
	182	 1	 0.0	 0.0	 0.0	 0.0	 4	    1.00000	    0.00000	 345.0	 4	    1.10000	    0.90000;
	183	 2	 33.51	 159.4	 0.0	 0.0	 4	    1.00000	    0.00000	 345.0	 4	    1.10000	    0.90000;
	184	 2	 19.91	 36.57	 0.0	 0.0	 4	    1.00000	    0.00000	 345.0	 4	    1.10000	    0.90000;
	185	 2	 12.0	 30.0	 0.0	 0.0	 4	    1.00000	    0.00000	 500.0	 4	    1.10000	    0.90000;
	186	 2	 12.0	 30.0	 0.0	 0.0	 4	    1.00000	    0.00000	 500.0	 4	    1.10000	    0.90000;
	187	 2	 0.0	 0.0	 0.0	 0.0	 4	    1.00000	    0.00000	 500.0	 4	    1.10000	    0.90000;
	188	 1	 0.0	 0.0	 0.0	 93.07	 4	    1.00000	    0.00000	 500.0	 4	    1.10000	    0.90000;
	189	 1	 33.41	 22.47	 0.0	 0.0	 4	    1.00000	    0.00000	 345.0	 4	    1.10000	    0.90000;
	190	 1	 18.51	 68.88	 0.0	 0.0	 4	    1.00000	    0.00000	 345.0	 4	    1.10000	    0.90000;
	191	 1	 14.74	 4.03	 0.0	 0.0	 4	    1.00000	    0.00000	 345.0	 4	    1.10000	    0.90000;
	192	 1	 0.0	 0.0	 0.0	 168.92	 4	    1.00000	    0.00000	 500.0	 4	    1.10000	    0.90000;
	193	 1	 32.23	 53.02	 0.0	 0.0	 4	    1.00000	    0.00000	 345.0	 4	    1.10000	    0.90000;
	194	 1	 81.5	 85.9	 0.0	 0.0	 4	    1.00000	    0.00000	 345.0	 4	    1.10000	    0.90000;
	195	 1	 0.0	 0.0	 0.0	 0.0	 4	    1.00000	    0.00000	 500.0	 4	    1.10000	    0.90000;
	196	 1	 0.0	 0.0	 0.0	 0.0	 4	    1.00000	    0.00000	 500.0	 4	    1.10000	    0.90000;
	197	 1	 0.0	 0.0	 0.0	 -59.0	 4	    1.00000	    0.00000	 500.0	 4	    1.10000	    0.90000;
	198	 1	 10.84	 2.51	 0.0	 0.0	 4	    1.00000	    0.00000	 138.0	 4	    1.10000	    0.90000;
	199	 2	 129.48	 36.94	 0.0	 0.0	 4	    1.00000	    0.00000	 138.0	 4	    1.10000	    0.90000;
	200	 1	 0.0	 0.0	 0.0	 0.0	 4	    1.00000	    0.00000	 138.0	 4	    1.10000	    0.90000;
...
];

%% generator data
%	bus	Pg	Qg	Qmax	Qmin	Vg	mBase	status	Pmax	Pmin	Pc1	Pc2	Qc1min	Qc1max	Qc2min	Qc2max	ramp_agc	ramp_10	ramp_30	ramp_q	apf
mpc.gen = [
	3	 0.0	 0.0	 33.33	 -33.33	 1.0	 100.0	 0	 137.95	 122.96	 0.0	 0.0	 0.0	 0.0	 0.0	 0.0	 0.0	 0.0	 0.0	 0.0	 137.955; % NG
	4	 226.96	 -34.935	 279.47	 -349.34	 1.0	 100.0	 1	 281.74	 172.18	 0.0	 0.0	 0.0	 0.0	 0.0	 0.0	 0.0	 0.0	 0.0	 0.0	 281.739; % NG
	9	 0.0	 0.0	 33.33	 -33.33	 1.0	 100.0	 0	 85.25	 70.25	 0.0	 0.0	 0.0	 0.0	 0.0	 0.0	 0.0	 0.0	 0.0	 0.0	 85.248; % NG
	10	 159.645	 -2.565	 20.51	 -25.64	 1.0	 100.0	 1	 221.79	 97.5	 0.0	 0.0	 0.0	 0.0	 0.0	 0.0	 0.0	 0.0	 0.0	 0.0	 221.788; % NG
	15	 -10.5	 21.5	 105.0	 -62.0	 1.0	 216.55	 1	 179.0	 -200.0	 0.0	 0.0	 0.0	 0.0	 0.0	 0.0	 0.0	 0.0	 0.0	 0.0	 179.0; % NG
	15	 -10.5	 21.5	 105.0	 -62.0	 1.0	 179.0	 1	 179.0	 -200.0	 0.0	 0.0	 0.0	 0.0	 0.0	 0.0	 0.0	 0.0	 0.0	 0.0	 179.0; % COW
	15	 -10.5	 27.5	 130.0	 -75.0	 1.0	 179.0	 1	 179.0	 -200.0	 0.0	 0.0	 0.0	 0.0	 0.0	 0.0	 0.0	 0.0	 0.0	 0.0	 179.0; % COW
	16	 -10.5	 30.0	 160.0	 -100.0	 1.0	 179.0	 1	 179.0	 -200.0	 0.0	 0.0	 0.0	 0.0	 0.0	 0.0	 0.0	 0.0	 0.0	 0.0	 179.0; % NG
	19	 40.5	 -65.0	 35.0	 -165.0	 1.0	 58.99	 1	 55.0	 26.0	 0.0	 0.0	 0.0	 0.0	 0.0	 0.0	 0.0	 0.0	 0.0	 0.0	 55.0; % NG
	20	 0.0	 0.0	 18.33	 -18.33	 1.0	 55.0	 0	 55.0	 26.0	 0.0	 0.0	 0.0	 0.0	 0.0	 0.0	 0.0	 0.0	 0.0	 0.0	 55.0; % NG
	22	 142.5	 2.0	 184.0	 -180.0	 1.0	 0.36	 1	 285.0	 0.0	 0.0	 0.0	 0.0	 0.0	 0.0	 0.0	 0.0	 0.0	 0.0	 0.0	 285.0; % NG
	29	 9.0	 0.5	 178.0	 -177.0	 1.0	 18.0	 1	 18.0	 0.0	 0.0	 0.0	 0.0	 0.0	 0.0	 0.0	 0.0	 0.0	 0.0	 0.0	 18.0; % PEL
	30	 11.0	 -0.5	 179.0	 -180.0	 1.0	 22.0	 1	 22.0	 0.0	 0.0	 0.0	 0.0	 0.0	 0.0	 0.0	 0.0	 0.0	 0.0	 0.0	 22.0; % NG
	37	 148.0	 9.0	 186.0	 -168.0	 1.0	 0.24	 1	 296.0	 0.0	 0.0	 0.0	 0.0	 0.0	 0.0	 0.0	 0.0	 0.0	 0.0	 0.0	 296.0; % COW
	44	 135.0	 4.5	 178.0	 -169.0	 1.0	 2.0	 1	 269.0	 1.0	 0.0	 0.0	 0.0	 0.0	 0.0	 0.0	 0.0	 0.0	 0.0	 0.0	 269.0; % COW
	45	 7.5	 11.0	 188.0	 -166.0	 1.0	 15.0	 1	 15.0	 0.0	 0.0	 0.0	 0.0	 0.0	 0.0	 0.0	 0.0	 0.0	 0.0	 0.0	 15.0; % NG
	49	 142.5	 5.5	 191.0	 -180.0	 1.0	 1.0	 1	 285.0	 0.0	 0.0	 0.0	 0.0	 0.0	 0.0	 0.0	 0.0	 0.0	 0.0	 0.0	 285.0; % NG
	54	 129.0	 10.0	 189.0	 -169.0	 1.0	 0.12	 1	 258.0	 0.0	 0.0	 0.0	 0.0	 0.0	 0.0	 0.0	 0.0	 0.0	 0.0	 0.0	 258.0; % COW
	54	 0.0	 0.0	 33.33	 -33.33	 1.0	 100.0	 0	 34.44	 19.44	 0.0	 0.0	 0.0	 0.0	 0.0	 0.0	 0.0	 0.0	 0.0	 0.0	 34.44; % COW
	58	 148.5	 9.0	 198.0	 -180.0	 1.0	 9.0	 1	 297.0	 0.0	 0.0	 0.0	 0.0	 0.0	 0.0	 0.0	 0.0	 0.0	 0.0	 0.0	 297.0; % NG
	60	 139.0	 -2.5	 179.0	 -184.0	 1.0	 0.24	 1	 278.0	 0.0	 0.0	 0.0	 0.0	 0.0	 0.0	 0.0	 0.0	 0.0	 0.0	 0.0	 278.0; % NG
	68	 0.0	 0.0	 33.33	 -33.33	 1.0	 100.0	 0	 137.95	 122.96	 0.0	 0.0	 0.0	 0.0	 0.0	 0.0	 0.0	 0.0	 0.0	 0.0	 137.955; % NG
	69	 226.96	 -35.27	 282.12	 -352.66	 1.0	 100.0	 1	 281.74	 172.18	 0.0	 0.0	 0.0	 0.0	 0.0	 0.0	 0.0	 0.0	 0.0	 0.0	 281.739; % NG
	74	 0.0	 0.0	 33.33	 -33.33	 1.0	 100.0	 0	 85.25	 70.25	 0.0	 0.0	 0.0	 0.0	 0.0	 0.0	 0.0	 0.0	 0.0	 0.0	 85.248; % NG
	75	 149.935	 -5.19	 41.51	 -51.89	 1.0	 100.0	 1	 221.79	 78.08	 0.0	 0.0	 0.0	 0.0	 0.0	 0.0	 0.0	 0.0	 0.0	 0.0	 221.788; % NG
	80	 -10.5	 21.5	 105.0	 -62.0	 1.0	 216.55	 1	 179.0	 -200.0	 0.0	 0.0	 0.0	 0.0	 0.0	 0.0	 0.0	 0.0	 0.0	 0.0	 179.0; % COW
	80	 -10.5	 21.5	 105.0	 -62.0	 1.0	 179.0	 1	 179.0	 -200.0	 0.0	 0.0	 0.0	 0.0	 0.0	 0.0	 0.0	 0.0	 0.0	 0.0	 179.0; % NG
	80	 -10.5	 27.5	 130.0	 -75.0	 1.0	 179.0	 1	 179.0	 -200.0	 0.0	 0.0	 0.0	 0.0	 0.0	 0.0	 0.0	 0.0	 0.0	 0.0	 179.0; % NG
	81	 -10.5	 30.0	 160.0	 -100.0	 1.0	 179.0	 1	 179.0	 -200.0	 0.0	 0.0	 0.0	 0.0	 0.0	 0.0	 0.0	 0.0	 0.0	 0.0	 179.0; % NG
	84	 40.5	 -70.0	 35.0	 -175.0	 1.0	 58.99	 1	 55.0	 26.0	 0.0	 0.0	 0.0	 0.0	 0.0	 0.0	 0.0	 0.0	 0.0	 0.0	 55.0; % NG
	85	 0.0	 0.0	 18.33	 -18.33	 1.0	 55.0	 0	 55.0	 26.0	 0.0	 0.0	 0.0	 0.0	 0.0	 0.0	 0.0	 0.0	 0.0	 0.0	 55.0; % NG
	87	 128.0	 9.5	 197.0	 -178.0	 1.0	 0.36	 1	 256.0	 0.0	 0.0	 0.0	 0.0	 0.0	 0.0	 0.0	 0.0	 0.0	 0.0	 0.0	 256.0; % NG
	94	 9.0	 4.5	 179.0	 -170.0	 1.0	 18.0	 1	 18.0	 0.0	 0.0	 0.0	 0.0	 0.0	 0.0	 0.0	 0.0	 0.0	 0.0	 0.0	 18.0; % NG
	95	 11.0	 7.5	 199.0	 -184.0	 1.0	 22.0	 1	 22.0	 0.0	 0.0	 0.0	 0.0	 0.0	 0.0	 0.0	 0.0	 0.0	 0.0	 0.0	 22.0; % PEL
	102	 134.0	 8.0	 182.0	 -166.0	 1.0	 0.24	 1	 268.0	 0.0	 0.0	 0.0	 0.0	 0.0	 0.0	 0.0	 0.0	 0.0	 0.0	 0.0	 268.0; % NG
	109	 134.5	 3.5	 191.0	 -184.0	 1.0	 2.0	 1	 268.0	 1.0	 0.0	 0.0	 0.0	 0.0	 0.0	 0.0	 0.0	 0.0	 0.0	 0.0	 268.0; % NG
	110	 7.5	 7.5	 191.0	 -176.0	 1.0	 15.0	 1	 15.0	 0.0	 0.0	 0.0	 0.0	 0.0	 0.0	 0.0	 0.0	 0.0	 0.0	 0.0	 15.0; % PEL
	114	 149.0	 6.0	 183.0	 -171.0	 1.0	 1.0	 1	 298.0	 0.0	 0.0	 0.0	 0.0	 0.0	 0.0	 0.0	 0.0	 0.0	 0.0	 0.0	 298.0; % COW
	119	 141.5	 12.5	 192.0	 -167.0	 1.0	 0.12	 1	 283.0	 0.0	 0.0	 0.0	 0.0	 0.0	 0.0	 0.0	 0.0	 0.0	 0.0	 0.0	 283.0; % NG
	119	 0.0	 0.0	 33.33	 -33.33	 1.0	 100.0	 0	 34.44	 19.44	 0.0	 0.0	 0.0	 0.0	 0.0	 0.0	 0.0	 0.0	 0.0	 0.0	 34.44; % PEL
	123	 132.0	 14.0	 200.0	 -172.0	 1.0	 9.0	 1	 264.0	 0.0	 0.0	 0.0	 0.0	 0.0	 0.0	 0.0	 0.0	 0.0	 0.0	 0.0	 264.0; % NG
	125	 126.5	 14.5	 196.0	 -167.0	 1.0	 0.24	 1	 253.0	 0.0	 0.0	 0.0	 0.0	 0.0	 0.0	 0.0	 0.0	 0.0	 0.0	 0.0	 253.0; % NG
	132	 0.0	 0.0	 33.33	 -33.33	 1.0	 100.0	 0	 35.29	 20.29	 0.0	 0.0	 0.0	 0.0	 0.0	 0.0	 0.0	 0.0	 0.0	 0.0	 35.288; % NG
	133	 227.105	 0.0	 202.93	 -202.93	 1.0	 100.0	 1	 393.52	 60.69	 0.0	 0.0	 0.0	 0.0	 0.0	 0.0	 0.0	 0.0	 0.0	 0.0	 393.516; % NG
	135	 0.0	 0.0	 33.33	 -33.33	 1.0	 100.0	 0	 101.89	 86.89	 0.0	 0.0	 0.0	 0.0	 0.0	 0.0	 0.0	 0.0	 0.0	 0.0	 101.886; % NG
	138	 22.1	 0.0	 12.48	 -12.48	 1.0	 100.0	 1	 33.73	 10.47	 0.0	 0.0	 0.0	 0.0	 0.0	 0.0	 0.0	 0.0	 0.0	 0.0	 33.726; % NG
	142	 0.0	 0.0	 33.33	 -33.33	 1.0	 100.0	 0	 25.24	 10.24	 0.0	 0.0	 0.0	 0.0	 0.0	 0.0	 0.0	 0.0	 0.0	 0.0	 25.238; % PEL
	144	 0.0	 0.0	 2.33	 -2.33	 1.0	 7.0	 0	 270.0	 5.0	 0.0	 0.0	 0.0	 0.0	 0.0	 0.0	 0.0	 0.0	 0.0	 0.0	 270.0; % NG
	152	 20.5	 10.5	 192.0	 -171.0	 1.0	 41.0	 1	 41.0	 0.0	 0.0	 0.0	 0.0	 0.0	 0.0	 0.0	 0.0	 0.0	 0.0	 0.0	 41.0; % NG
	153	 12.5	 -77.26	 23.48	 -178.0	 1.0	 37.52	 1	 25.0	 0.0	 0.0	 0.0	 0.0	 0.0	 0.0	 0.0	 0.0	 0.0	 0.0	 0.0	 25.0; % PEL
	153	 17.5	 -68.78	 32.44	 -170.0	 1.0	 35.0	 1	 35.0	 0.0	 0.0	 0.0	 0.0	 0.0	 0.0	 0.0	 0.0	 0.0	 0.0	 0.0	 35.0; % PEL
	153	 0.0	 0.0	 8.33	 -8.33	 1.0	 25.0	 0	 25.0	 0.0	 0.0	 0.0	 0.0	 0.0	 0.0	 0.0	 0.0	 0.0	 0.0	 0.0	 25.0; % PEL
	157	 0.0	 0.0	 0.67	 -0.67	 1.0	 2.0	 0	 266.0	 0.0	 0.0	 0.0	 0.0	 0.0	 0.0	 0.0	 0.0	 0.0	 0.0	 0.0	 266.0; % COW
	159	 0.0	 0.0	 33.33	 -33.33	 1.0	 100.0	 0	 52.21	 37.21	 0.0	 0.0	 0.0	 0.0	 0.0	 0.0	 0.0	 0.0	 0.0	 0.0	 52.208; % COW
	160	 0.0	 0.0	 33.33	 -33.33	 1.0	 100.0	 0	 274.0	 0.0	 0.0	 0.0	 0.0	 0.0	 0.0	 0.0	 0.0	 0.0	 0.0	 0.0	 274.0; % COW
	167	 0.0	 0.0	 33.33	 -33.33	 1.0	 100.0	 0	 27.97	 12.97	 0.0	 0.0	 0.0	 0.0	 0.0	 0.0	 0.0	 0.0	 0.0	 0.0	 27.972; % NG
	168	 0.0	 0.0	 33.33	 -33.33	 1.0	 100.0	 0	 26.84	 11.84	 0.0	 0.0	 0.0	 0.0	 0.0	 0.0	 0.0	 0.0	 0.0	 0.0	 26.842; % NG
	172	 138.0	 -1.5	 181.0	 -184.0	 1.0	 0.36	 1	 276.0	 0.0	 0.0	 0.0	 0.0	 0.0	 0.0	 0.0	 0.0	 0.0	 0.0	 0.0	 276.0; % NG
	178	 9.0	 1.0	 185.0	 -183.0	 1.0	 18.0	 1	 18.0	 0.0	 0.0	 0.0	 0.0	 0.0	 0.0	 0.0	 0.0	 0.0	 0.0	 0.0	 18.0; % NG
	180	 0.0	 0.0	 1.33	 -1.33	 1.0	 4.0	 0	 277.0	 0.0	 0.0	 0.0	 0.0	 0.0	 0.0	 0.0	 0.0	 0.0	 0.0	 0.0	 277.0; % NG
	183	 170.0	 58.875	 138.75	 -21.0	 1.0	 253.76	 1	 205.0	 135.0	 0.0	 0.0	 0.0	 0.0	 0.0	 0.0	 0.0	 0.0	 0.0	 0.0	 205.0; % NG
	184	 0.0	 0.0	 74.0	 -74.0	 1.0	 222.0	 0	 222.0	 90.0	 0.0	 0.0	 0.0	 0.0	 0.0	 0.0	 0.0	 0.0	 0.0	 0.0	 222.0; % NG
	184	 0.0	 0.0	 68.33	 -68.33	 1.0	 205.0	 0	 205.0	 135.0	 0.0	 0.0	 0.0	 0.0	 0.0	 0.0	 0.0	 0.0	 0.0	 0.0	 205.0; % NG
	184	 166.0	 44.0	 119.0	 -31.0	 1.0	 232.0	 1	 232.0	 100.0	 0.0	 0.0	 0.0	 0.0	 0.0	 0.0	 0.0	 0.0	 0.0	 0.0	 232.0; % NG
	185	 170.215	 56.25	 127.5	 -15.0	 1.0	 268.92	 1	 250.43	 90.0	 0.0	 0.0	 0.0	 0.0	 0.0	 0.0	 0.0	 0.0	 0.0	 0.0	 250.434; % NG
	186	 0.0	 0.0	 77.33	 -77.33	 1.0	 232.0	 0	 232.0	 100.0	 0.0	 0.0	 0.0	 0.0	 0.0	 0.0	 0.0	 0.0	 0.0	 0.0	 232.0; % NG
	186	 170.0	 56.25	 127.5	 -15.0	 1.0	 268.92	 1	 250.0	 90.0	 0.0	 0.0	 0.0	 0.0	 0.0	 0.0	 0.0	 0.0	 0.0	 0.0	 250.0; % COW
	187	 924.65	 -9.035	 72.29	 -90.36	 1.0	 100.0	 1	 1241.44	 607.86	 0.0	 0.0	 0.0	 0.0	 0.0	 0.0	 0.0	 0.0	 0.0	 0.0	 1241.4449; % PEL
	199	 156.0	 49.0	 117.0	 -19.0	 1.0	 222.0	 1	 222.0	 90.0	 0.0	 0.0	 0.0	 0.0	 0.0	 0.0	 0.0	 0.0	 0.0	 0.0	 222.0; % NG
	205	 149.54	 11.0	 193.0	 -171.0	 1.0	 4.0	 1	 297.0	 2.08	 0.0	 0.0	 0.0	 0.0	 0.0	 0.0	 0.0	 0.0	 0.0	 0.0	 297.0; % COW
	205	 0.0	 0.0	 33.33	 -33.33	 1.0	 100.0	 0	 28.32	 13.31	 0.0	 0.0	 0.0	 0.0	 0.0	 0.0	 0.0	 0.0	 0.0	 0.0	 28.315; % NG
	206	 0.0	 0.0	 33.33	 -33.33	 1.0	 100.0	 0	 34.72	 19.72	 0.0	 0.0	 0.0	 0.0	 0.0	 0.0	 0.0	 0.0	 0.0	 0.0	 34.719; % PEL
	210	 130.25	 13.0	 194.0	 -168.0	 1.0	 6.0	 1	 258.0	 2.5	 0.0	 0.0	 0.0	 0.0	 0.0	 0.0	 0.0	 0.0	 0.0	 0.0	 258.0; % COW
	222	 13.0	 7.5	 192.0	 -177.0	 1.0	 26.0	 1	 26.0	 0.0	 0.0	 0.0	 0.0	 0.0	 0.0	 0.0	 0.0	 0.0	 0.0	 0.0	 26.0; % NG
	222	 0.0	 0.0	 33.33	 -33.33	 1.0	 100.0	 0	 273.0	 0.27	 0.0	 0.0	 0.0	 0.0	 0.0	 0.0	 0.0	 0.0	 0.0	 0.0	 273.0; % NG
	226	 130.5	 13.5	 198.0	 -171.0	 1.0	 2.0	 1	 261.0	 0.0	 0.0	 0.0	 0.0	 0.0	 0.0	 0.0	 0.0	 0.0	 0.0	 0.0	 261.0; % NG
	227	 25.0	 8.0	 188.0	 -172.0	 1.0	 50.0	 1	 50.0	 0.0	 0.0	 0.0	 0.0	 0.0	 0.0	 0.0	 0.0	 0.0	 0.0	 0.0	 50.0; % COW
	230	 127.0	 -2.0	 179.0	 -183.0	 1.0	 108.13	 1	 254.0	 0.0	 0.0	 0.0	 0.0	 0.0	 0.0	 0.0	 0.0	 0.0	 0.0	 0.0	 254.0; % NG
	237	 0.0	 0.0	 23.73	 -23.73	 1.0	 71.2	 0	 45.15	 0.0	 0.0	 0.0	 0.0	 0.0	 0.0	 0.0	 0.0	 0.0	 0.0	 0.0	 45.15; % NG
	237	 0.0	 0.0	 23.73	 -23.73	 1.0	 71.2	 0	 45.15	 0.0	 0.0	 0.0	 0.0	 0.0	 0.0	 0.0	 0.0	 0.0	 0.0	 0.0	 45.15; % PEL
	248	 0.0	 0.0	 33.33	 -33.33	 1.0	 100.0	 0	 298.0	 8.35	 0.0	 0.0	 0.0	 0.0	 0.0	 0.0	 0.0	 0.0	 0.0	 0.0	 298.0; % COW
	271	 33.485	 -1.65	 13.21	 -16.51	 1.0	 100.0	 1	 50.41	 16.56	 0.0	 0.0	 0.0	 0.0	 0.0	 0.0	 0.0	 0.0	 0.0	 0.0	 50.412; % NG
	275	 118.06	 0.0	 27.49	 -27.49	 1.0	 100.0	 1	 146.28	 89.84	 0.0	 0.0	 0.0	 0.0	 0.0	 0.0	 0.0	 0.0	 0.0	 0.0	 146.284; % NG
	278	 18.225	 0.0	 24.5	 -24.5	 1.0	 100.0	 1	 26.7	 9.75	 0.0	 0.0	 0.0	 0.0	 0.0	 0.0	 0.0	 0.0	 0.0	 0.0	 26.697; % NG
	280	 0.0	 0.0	 23.73	 -23.73	 1.0	 71.2	 0	 45.15	 0.0	 0.0	 0.0	 0.0	 0.0	 0.0	 0.0	 0.0	 0.0	 0.0	 0.0	 45.15; % PEL
	280	 0.0	 0.0	 23.73	 -23.73	 1.0	 71.2	 0	 45.15	 0.0	 0.0	 0.0	 0.0	 0.0	 0.0	 0.0	 0.0	 0.0	 0.0	 0.0	 45.15; % NG
	281	 41.745	 94.725	 198.0	 -8.55	 1.0	 100.0	 1	 64.19	 19.3	 0.0	 0.0	 0.0	 0.0	 0.0	 0.0	 0.0	 0.0	 0.0	 0.0	 64.187; % NG
	296	 579.815	 1.0	 101.0	 -99.0	 1.0	 600.0	 1	 825.3	 334.33	 0.0	 0.0	 0.0	 0.0	 0.0	 0.0	 0.0	 0.0	 0.0	 0.0	 825.299; % NUC
	296	 594.89	 1.0	 101.0	 -99.0	 1.0	 600.0	 1	 846.64	 343.14	 0.0	 0.0	 0.0	 0.0	 0.0	 0.0	 0.0	 0.0	 0.0	 0.0	 846.641; % COW
	309	 0.0	 0.0	 43.33	 -43.33	 1.0	 130.0	 0	 158.49	 28.5	 0.0	 0.0	 0.0	 0.0	 0.0	 0.0	 0.0	 0.0	 0.0	 0.0	 158.49; % NG
	309	 0.0	 0.0	 43.33	 -43.33	 1.0	 130.0	 0	 156.39	 28.5	 0.0	 0.0	 0.0	 0.0	 0.0	 0.0	 0.0	 0.0	 0.0	 0.0	 156.39; % NG
	315	 0.0	 0.0	 23.73	 -23.73	 1.0	 71.2	 0	 45.15	 0.0	 0.0	 0.0	 0.0	 0.0	 0.0	 0.0	 0.0	 0.0	 0.0	 0.0	 45.15; % NG
	315	 0.0	 0.0	 23.73	 -23.73	 1.0	 71.2	 0	 45.15	 0.0	 0.0	 0.0	 0.0	 0.0	 0.0	 0.0	 0.0	 0.0	 0.0	 0.0	 45.15; % NG
	326	 31.7	 87.655	 180.0	 -4.69	 1.0	 100.0	 1	 41.4	 22.0	 0.0	 0.0	 0.0	 0.0	 0.0	 0.0	 0.0	 0.0	 0.0	 0.0	 41.398; % NG
	352	 0.0	 0.0	 19.0	 -19.0	 1.0	 57.0	 0	 66.3	 51.3	 0.0	 0.0	 0.0	 0.0	 0.0	 0.0	 0.0	 0.0	 0.0	 0.0	 66.3; % PEL
	352	 0.0	 0.0	 19.0	 -19.0	 1.0	 57.0	 0	 64.4	 49.4	 0.0	 0.0	 0.0	 0.0	 0.0	 0.0	 0.0	 0.0	 0.0	 0.0	 64.4; % NG
	353	 0.0	 0.0	 33.33	 -33.33	 1.0	 100.0	 0	 25.66	 10.66	 0.0	 0.0	 0.0	 0.0	 0.0	 0.0	 0.0	 0.0	 0.0	 0.0	 25.66; % PEL
	355	 0.0	 0.0	 7.67	 -7.67	 1.0	 23.0	 0	 32.1	 17.1	 0.0	 0.0	 0.0	 0.0	 0.0	 0.0	 0.0	 0.0	 0.0	 0.0	 32.1; % NG
	355	 0.0	 0.0	 7.67	 -7.67	 1.0	 23.0	 0	 32.1	 17.1	 0.0	 0.0	 0.0	 0.0	 0.0	 0.0	 0.0	 0.0	 0.0	 0.0	 32.1; % NG
	356	 0.0	 0.0	 51.33	 -51.33	 1.0	 154.0	 0	 267.0	 0.0	 0.0	 0.0	 0.0	 0.0	 0.0	 0.0	 0.0	 0.0	 0.0	 0.0	 267.0; % NG
	359	 0.0	 0.0	 7.67	 -7.67	 1.0	 23.0	 0	 33.05	 18.05	 0.0	 0.0	 0.0	 0.0	 0.0	 0.0	 0.0	 0.0	 0.0	 0.0	 33.05; % NG
	359	 0.0	 0.0	 7.67	 -7.67	 1.0	 23.0	 0	 32.1	 17.1	 0.0	 0.0	 0.0	 0.0	 0.0	 0.0	 0.0	 0.0	 0.0	 0.0	 32.1; % COW
	361	 140.0	 9.5	 199.0	 -180.0	 1.0	 100.0	 1	 280.0	 0.0	 0.0	 0.0	 0.0	 0.0	 0.0	 0.0	 0.0	 0.0	 0.0	 0.0	 280.0; % NG
	361	 12.25	 97.73	 198.0	 -2.54	 1.0	 71.0	 1	 19.75	 4.75	 0.0	 0.0	 0.0	 0.0	 0.0	 0.0	 0.0	 0.0	 0.0	 0.0	 19.75; % PEL
	361	 0.0	 0.0	 1.33	 -1.33	 1.0	 4.0	 0	 264.0	 1.14	 0.0	 0.0	 0.0	 0.0	 0.0	 0.0	 0.0	 0.0	 0.0	 0.0	 264.0; % NG
	362	 78.815	 94.815	 197.0	 -7.37	 1.0	 100.0	 1	 92.8	 64.83	 0.0	 0.0	 0.0	 0.0	 0.0	 0.0	 0.0	 0.0	 0.0	 0.0	 92.796; % NG
	364	 0.0	 0.0	 19.0	 -19.0	 1.0	 57.0	 0	 66.3	 51.3	 0.0	 0.0	 0.0	 0.0	 0.0	 0.0	 0.0	 0.0	 0.0	 0.0	 66.3; % PEL
	364	 0.0	 0.0	 19.0	 -19.0	 1.0	 57.0	 0	 61.55	 46.55	 0.0	 0.0	 0.0	 0.0	 0.0	 0.0	 0.0	 0.0	 0.0	 0.0	 61.55; % NG
	365	 0.0	 0.0	 33.33	 -33.33	 1.0	 100.0	 0	 251.0	 1.42	 0.0	 0.0	 0.0	 0.0	 0.0	 0.0	 0.0	 0.0	 0.0	 0.0	 251.0; % NG
	365	 139.065	 96.74	 195.0	 -1.52	 1.0	 100.0	 1	 273.0	 5.13	 0.0	 0.0	 0.0	 0.0	 0.0	 0.0	 0.0	 0.0	 0.0	 0.0	 273.0; % NG
	366	 164.085	 0.0	 26.69	 -26.69	 1.0	 100.0	 1	 196.9	 131.27	 0.0	 0.0	 0.0	 0.0	 0.0	 0.0	 0.0	 0.0	 0.0	 0.0	 196.904; % NG
	368	 73.69	 98.17	 199.0	 -2.66	 1.0	 100.0	 1	 87.21	 60.17	 0.0	 0.0	 0.0	 0.0	 0.0	 0.0	 0.0	 0.0	 0.0	 0.0	 87.208; % NG
	369	 0.0	 0.0	 10.0	 -10.0	 1.0	 30.0	 0	 37.8	 22.8	 0.0	 0.0	 0.0	 0.0	 0.0	 0.0	 0.0	 0.0	 0.0	 0.0	 37.8; % NG
	369	 0.0	 0.0	 10.0	 -10.0	 1.0	 30.0	 0	 37.8	 22.8	 0.0	 0.0	 0.0	 0.0	 0.0	 0.0	 0.0	 0.0	 0.0	 0.0	 37.8; % NG
	371	 0.0	 0.0	 7.67	 -7.67	 1.0	 23.0	 0	 32.1	 17.1	 0.0	 0.0	 0.0	 0.0	 0.0	 0.0	 0.0	 0.0	 0.0	 0.0	 32.1; % COW
	371	 0.0	 0.0	 7.67	 -7.67	 1.0	 23.0	 0	 32.1	 17.1	 0.0	 0.0	 0.0	 0.0	 0.0	 0.0	 0.0	 0.0	 0.0	 0.0	 32.1; % COW
	375	 0.0	 0.0	 33.33	 -33.33	 1.0	 100.0	 0	 139.83	 124.83	 0.0	 0.0	 0.0	 0.0	 0.0	 0.0	 0.0	 0.0	 0.0	 0.0	 139.826; % NG
	382	 0.0	 0.0	 46.67	 -46.67	 1.0	 140.0	 0	 281.0	 0.0	 0.0	 0.0	 0.0	 0.0	 0.0	 0.0	 0.0	 0.0	 0.0	 0.0	 281.0; % NG
	385	 37.075	 0.0	 14.79	 -14.79	 1.0	 100.0	 1	 47.26	 26.89	 0.0	 0.0	 0.0	 0.0	 0.0	 0.0	 0.0	 0.0	 0.0	 0.0	 47.263; % NG
	388	 0.0	 0.0	 10.0	 -10.0	 1.0	 30.0	 0	 35.9	 20.9	 0.0	 0.0	 0.0	 0.0	 0.0	 0.0	 0.0	 0.0	 0.0	 0.0	 35.9; % NG
	388	 0.0	 0.0	 10.0	 -10.0	 1.0	 30.0	 0	 36.85	 21.85	 0.0	 0.0	 0.0	 0.0	 0.0	 0.0	 0.0	 0.0	 0.0	 0.0	 36.85; % PEL
	390	 581.425	 0.0	 33.19	 -33.19	 1.0	 100.0	 1	 697.71	 465.14	 0.0	 0.0	 0.0	 0.0	 0.0	 0.0	 0.0	 0.0	 0.0	 0.0	 697.71; % COW
	395	 268.01	 0.0	 34.72	 -34.72	 1.0	 100.0	 1	 321.61	 214.41	 0.0	 0.0	 0.0	 0.0	 0.0	 0.0	 0.0	 0.0	 0.0	 0.0	 321.615; % NG
	398	 0.0	 0.0	 7.67	 -7.67	 1.0	 23.0	 0	 32.1	 17.1	 0.0	 0.0	 0.0	 0.0	 0.0	 0.0	 0.0	 0.0	 0.0	 0.0	 32.1; % PEL
	398	 0.0	 0.0	 7.67	 -7.67	 1.0	 23.0	 0	 33.05	 18.05	 0.0	 0.0	 0.0	 0.0	 0.0	 0.0	 0.0	 0.0	 0.0	 0.0	 33.05; % NG
	400	 0.0	 0.0	 66.67	 -66.67	 1.0	 200.0	 0	 155.4	 140.6	 0.0	 0.0	 0.0	 0.0	 0.0	 0.0	 0.0	 0.0	 0.0	 0.0	 155.4; % NG
	401	 0.0	 0.0	 51.33	 -51.33	 1.0	 154.0	 0	 271.0	 0.0	 0.0	 0.0	 0.0	 0.0	 0.0	 0.0	 0.0	 0.0	 0.0	 0.0	 271.0; % NG
	407	 0.0	 0.0	 50.0	 -50.0	 1.0	 150.0	 0	 294.0	 242.25	 0.0	 0.0	 0.0	 0.0	 0.0	 0.0	 0.0	 0.0	 0.0	 0.0	 294.0; % NG
	411	 143.0	 9.0	 190.0	 -172.0	 1.0	 100.0	 1	 286.0	 0.0	 0.0	 0.0	 0.0	 0.0	 0.0	 0.0	 0.0	 0.0	 0.0	 0.0	 286.0; % COW
	414	 359.305	 0.0	 53.15	 -53.15	 1.0	 100.0	 1	 431.17	 287.44	 0.0	 0.0	 0.0	 0.0	 0.0	 0.0	 0.0	 0.0	 0.0	 0.0	 431.167; % COW
	422	 50.48	 -2.31	 18.48	 -23.1	 1.0	 100.0	 1	 65.27	 35.69	 0.0	 0.0	 0.0	 0.0	 0.0	 0.0	 0.0	 0.0	 0.0	 0.0	 65.268; % NG
	423	 106.875	 36.0	 73.0	 -1.0	 1.0	 163.45	 1	 143.75	 70.0	 0.0	 0.0	 0.0	 0.0	 0.0	 0.0	 0.0	 0.0	 0.0	 0.0	 143.75; % NG
	424	 106.875	 36.0	 73.0	 -1.0	 1.0	 148.19	 1	 143.75	 70.0	 0.0	 0.0	 0.0	 0.0	 0.0	 0.0	 0.0	 0.0	 0.0	 0.0	 143.75; % COW
	424	 0.0	 0.0	 33.33	 -33.33	 1.0	 100.0	 0	 28.1	 13.1	 0.0	 0.0	 0.0	 0.0	 0.0	 0.0	 0.0	 0.0	 0.0	 0.0	 28.104; % NG
	440	 84.75	 35.0	 110.0	 -40.0	 1.0	 147.7	 1	 137.5	 32.0	 0.0	 0.0	 0.0	 0.0	 0.0	 0.0	 0.0	 0.0	 0.0	 0.0	 137.5; % NG
	441	 0.0	 0.0	 37.67	 -37.67	 1.0	 113.0	 0	 113.0	 32.0	 0.0	 0.0	 0.0	 0.0	 0.0	 0.0	 0.0	 0.0	 0.0	 0.0	 113.0; % COW
	445	 0.0	 0.0	 45.0	 -45.0	 1.0	 135.0	 0	 135.0	 35.0	 0.0	 0.0	 0.0	 0.0	 0.0	 0.0	 0.0	 0.0	 0.0	 0.0	 135.0; % NG
	455	 0.0	 0.0	 8.33	 -8.33	 1.0	 25.0	 0	 25.0	 10.0	 0.0	 0.0	 0.0	 0.0	 0.0	 0.0	 0.0	 0.0	 0.0	 0.0	 25.0; % NG
	455	 0.0	 0.0	 8.33	 -8.33	 1.0	 25.0	 0	 25.0	 10.0	 0.0	 0.0	 0.0	 0.0	 0.0	 0.0	 0.0	 0.0	 0.0	 0.0	 25.0; % NG
	455	 20.625	 5.5	 179.0	 -168.0	 1.0	 30.0	 1	 31.25	 10.0	 0.0	 0.0	 0.0	 0.0	 0.0	 0.0	 0.0	 0.0	 0.0	 0.0	 31.25; % PEL
	455	 17.5	 5.0	 192.0	 -182.0	 1.0	 25.0	 1	 25.0	 10.0	 0.0	 0.0	 0.0	 0.0	 0.0	 0.0	 0.0	 0.0	 0.0	 0.0	 25.0; % NG
	457	 0.0	 0.0	 33.33	 -33.33	 1.0	 100.0	 0	 259.0	 2.4	 0.0	 0.0	 0.0	 0.0	 0.0	 0.0	 0.0	 0.0	 0.0	 0.0	 259.0; % COW
	458	 0.0	 0.0	 16.67	 -16.67	 1.0	 50.0	 0	 50.0	 10.0	 0.0	 0.0	 0.0	 0.0	 0.0	 0.0	 0.0	 0.0	 0.0	 0.0	 50.0; % COW
	475	 95.0	 36.0	 73.0	 -1.0	 1.0	 120.0	 1	 120.0	 70.0	 0.0	 0.0	 0.0	 0.0	 0.0	 0.0	 0.0	 0.0	 0.0	 0.0	 120.0; % COW
	475	 89.165	 36.0	 73.0	 -1.0	 1.0	 120.0	 1	 120.0	 58.33	 0.0	 0.0	 0.0	 0.0	 0.0	 0.0	 0.0	 0.0	 0.0	 0.0	 120.0; % NG
	476	 177.555	 35.875	 73.0	 -1.25	 1.0	 144.0	 1	 254.99	 100.12	 0.0	 0.0	 0.0	 0.0	 0.0	 0.0	 0.0	 0.0	 0.0	 0.0	 254.988; % COW
	476	 0.0	 0.0	 36.67	 -36.67	 1.0	 110.0	 0	 110.0	 79.0	 0.0	 0.0	 0.0	 0.0	 0.0	 0.0	 0.0	 0.0	 0.0	 0.0	 110.0; % COW
	480	 0.0	 0.0	 33.33	 -33.33	 1.0	 100.0	 0	 62.47	 47.47	 0.0	 0.0	 0.0	 0.0	 0.0	 0.0	 0.0	 0.0	 0.0	 0.0	 62.466; % NG
	483	 0.0	 0.0	 33.33	 -33.33	 1.0	 100.0	 0	 259.0	 8.27	 0.0	 0.0	 0.0	 0.0	 0.0	 0.0	 0.0	 0.0	 0.0	 0.0	 259.0; % COW
	514	 41.15	 0.0	 87.18	 -87.18	 1.0	 100.0	 1	 79.66	 2.64	 0.0	 0.0	 0.0	 0.0	 0.0	 0.0	 0.0	 0.0	 0.0	 0.0	 79.663; % NG
	545	 0.0	 0.0	 123.33	 -123.33	 1.0	 370.0	 0	 370.0	 240.0	 0.0	 0.0	 0.0	 0.0	 0.0	 0.0	 0.0	 0.0	 0.0	 0.0	 370.0; % NG
	545	 0.0	 0.0	 123.33	 -123.33	 1.0	 370.0	 0	 370.0	 240.0	 0.0	 0.0	 0.0	 0.0	 0.0	 0.0	 0.0	 0.0	 0.0	 0.0	 370.0; % COW
	545	 335.625	 83.125	 190.0	 -23.75	 1.0	 449.45	 1	 431.25	 240.0	 0.0	 0.0	 0.0	 0.0	 0.0	 0.0	 0.0	 0.0	 0.0	 0.0	 431.25; % NG
	546	 351.25	 83.125	 190.0	 -23.75	 1.0	 455.56	 1	 462.5	 240.0	 0.0	 0.0	 0.0	 0.0	 0.0	 0.0	 0.0	 0.0	 0.0	 0.0	 462.5; % NG
	546	 305.0	 84.08	 190.0	 -21.84	 1.0	 397.31	 1	 370.0	 240.0	 0.0	 0.0	 0.0	 0.0	 0.0	 0.0	 0.0	 0.0	 0.0	 0.0	 370.0; % COW
	547	 722.385	 85.5	 190.0	 -19.0	 1.0	 616.84	 1	 1090.99	 353.78	 0.0	 0.0	 0.0	 0.0	 0.0	 0.0	 0.0	 0.0	 0.0	 0.0	 1090.993; % NG
	547	 722.385	 85.5	 190.0	 -19.0	 1.0	 616.84	 1	 1090.99	 353.78	 0.0	 0.0	 0.0	 0.0	 0.0	 0.0	 0.0	 0.0	 0.0	 0.0	 1090.993; % COW
	547	 722.385	 85.5	 190.0	 -19.0	 1.0	 616.84	 1	 1090.99	 353.78	 0.0	 0.0	 0.0	 0.0	 0.0	 0.0	 0.0	 0.0	 0.0	 0.0	 1090.993; % COW
	548	 351.25	 104.205	 227.41	 -19.0	 1.0	 451.84	 1	 462.5	 240.0	 0.0	 0.0	 0.0	 0.0	 0.0	 0.0	 0.0	 0.0	 0.0	 0.0	 462.5; % COW
	548	 332.5	 85.5	 190.0	 -19.0	 1.0	 416.51	 1	 425.0	 240.0	 0.0	 0.0	 0.0	 0.0	 0.0	 0.0	 0.0	 0.0	 0.0	 0.0	 425.0; % COW
	548	 332.5	 85.5	 190.0	 -19.0	 1.0	 416.51	 1	 425.0	 240.0	 0.0	 0.0	 0.0	 0.0	 0.0	 0.0	 0.0	 0.0	 0.0	 0.0	 425.0; % NG
	557	 120.425	 0.0	 133.54	 -133.54	 1.0	 100.0	 1	 156.95	 83.9	 0.0	 0.0	 0.0	 0.0	 0.0	 0.0	 0.0	 0.0	 0.0	 0.0	 156.952; % NG
	560	 114.585	 45.625	 106.25	 -15.0	 1.0	 166.81	 1	 137.5	 91.67	 0.0	 0.0	 0.0	 0.0	 0.0	 0.0	 0.0	 0.0	 0.0	 0.0	 137.5; % COW
	560	 0.0	 0.0	 40.0	 -40.0	 1.0	 120.0	 0	 120.0	 100.0	 0.0	 0.0	 0.0	 0.0	 0.0	 0.0	 0.0	 0.0	 0.0	 0.0	 120.0; % NG
	570	 338.75	 109.25	 237.5	 -19.0	 1.0	 477.9	 1	 437.5	 240.0	 0.0	 0.0	 0.0	 0.0	 0.0	 0.0	 0.0	 0.0	 0.0	 0.0	 437.5; % NG
	574	 15.0	 0.0	 179.0	 -179.0	 1.0	 30.0	 1	 30.0	 0.0	 0.0	 0.0	 0.0	 0.0	 0.0	 0.0	 0.0	 0.0	 0.0	 0.0	 30.0; % PEL
	580	 130.5	 -2.0	 178.0	 -182.0	 1.0	 0.43	 1	 261.0	 0.0	 0.0	 0.0	 0.0	 0.0	 0.0	 0.0	 0.0	 0.0	 0.0	 0.0	 261.0; % COW
];

%% generator cost data
%	2	startup	shutdown	n	c(n-1)	...	c0
mpc.gencost = [
2	0.0	0.0	3	0.2	23.535653	0.000000;	%	NG
2	0.0	0.0	3	0.2	27.465020	0.000000;	%	NG
2	0.0	0.0	3	0.2	34.227800	0.000000;	%	NG
2	0.0	0.0	3	0.2	36.624241	0.000000;	%	NG
2	0.0	0.0	3	0.2	48.190116	0.000000;	%	NG
2	0.0	0.0	3	0.2	37.933947	0.000000;	%	COW
2	0.0	0.0	3	0.2	12.156093	0.000000;	%	COW
2	0.0	0.0	3	0.2	36.057882	0.000000;	%	NG
2	0.0	0.0	3	0.2	46.037465	0.000000;	%	NG
2	0.0	0.0	3	0.2	18.648445	0.000000;	%	NG
2	0.0	0.0	3	0.2	47.503236	0.000000;	%	NG
2	0.0	0.0	3	0.2	103.913889	0.000000;	%	PEL
2	0.0	0.0	3	0.2	41.991113	0.000000;	%	NG
2	0.0	0.0	3	0.2	33.415433	0.000000;	%	COW
2	0.0	0.0	3	0.2	26.331314	0.000000;	%	COW
2	0.0	0.0	3	0.2	41.212053	0.000000;	%	NG
2	0.0	0.0	3	0.2	37.964524	0.000000;	%	NG
2	0.0	0.0	3	0.2	28.621957	0.000000;	%	COW
2	0.0	0.0	3	0.2	24.735716	0.000000;	%	COW
2	0.0	0.0	3	0.2	30.362388	0.000000;	%	NG
2	0.0	0.0	3	0.2	38.096425	0.000000;	%	NG
2	0.0	0.0	3	0.2	39.564385	0.000000;	%	NG
2	0.0	0.0	3	0.2	48.503408	0.000000;	%	NG
2	0.0	0.0	3	0.2	36.698208	0.000000;	%	NG
2	0.0	0.0	3	0.2	29.832915	0.000000;	%	NG
2	0.0	0.0	3	0.2	19.462995	0.000000;	%	COW
2	0.0	0.0	3	0.2	24.670298	0.000000;	%	NG
2	0.0	0.0	3	0.2	42.514759	0.000000;	%	NG
2	0.0	0.0	3	0.2	19.631594	0.000000;	%	NG
2	0.0	0.0	3	0.2	44.491363	0.000000;	%	NG
2	0.0	0.0	3	0.2	28.563386	0.000000;	%	NG
2	0.0	0.0	3	0.2	44.314937	0.000000;	%	NG
2	0.0	0.0	3	0.2	30.863210	0.000000;	%	NG
2	0.0	0.0	3	0.2	122.118278	0.000000;	%	PEL
2	0.0	0.0	3	0.2	42.045828	0.000000;	%	NG
2	0.0	0.0	3	0.2	19.858774	0.000000;	%	NG
2	0.0	0.0	3	0.2	100.342657	0.000000;	%	PEL
2	0.0	0.0	3	0.2	6.557863	0.000000;	%	COW
2	0.0	0.0	3	0.2	32.124894	0.000000;	%	NG
2	0.0	0.0	3	0.2	120.383376	0.000000;	%	PEL
2	0.0	0.0	3	0.2	53.898136	0.000000;	%	NG
2	0.0	0.0	3	0.2	30.442230	0.000000;	%	NG
2	0.0	0.0	3	0.2	42.752811	0.000000;	%	NG
2	0.0	0.0	3	0.2	27.829351	0.000000;	%	NG
2	0.0	0.0	3	0.2	25.900149	0.000000;	%	NG
2	0.0	0.0	3	0.2	53.631717	0.000000;	%	NG
2	0.0	0.0	3	0.2	101.198461	0.000000;	%	PEL
2	0.0	0.0	3	0.2	34.466152	0.000000;	%	NG
2	0.0	0.0	3	0.2	28.732147	0.000000;	%	NG
2	0.0	0.0	3	0.2	105.178409	0.000000;	%	PEL
2	0.0	0.0	3	0.2	122.503134	0.000000;	%	PEL
2	0.0	0.0	3	0.2	106.414426	0.000000;	%	PEL
2	0.0	0.0	3	0.2	27.620251	0.000000;	%	COW
2	0.0	0.0	3	0.2	18.242351	0.000000;	%	COW
2	0.0	0.0	3	0.2	46.958162	0.000000;	%	COW
2	0.0	0.0	3	0.2	39.610535	0.000000;	%	NG
2	0.0	0.0	3	0.2	44.894446	0.000000;	%	NG
2	0.0	0.0	3	0.2	38.935936	0.000000;	%	NG
2	0.0	0.0	3	0.2	42.471508	0.000000;	%	NG
2	0.0	0.0	3	0.2	46.458114	0.000000;	%	NG
2	0.0	0.0	3	0.2	10.435412	0.000000;	%	NG
2	0.0	0.0	3	0.2	36.140449	0.000000;	%	NG
2	0.0	0.0	3	0.2	31.930638	0.000000;	%	NG
2	0.0	0.0	3	0.2	27.846608	0.000000;	%	NG
2	0.0	0.0	3	0.2	40.609265	0.000000;	%	NG
2	0.0	0.0	3	0.2	28.147333	0.000000;	%	NG
2	0.0	0.0	3	0.2	29.951893	0.000000;	%	COW
2	0.0	0.0	3	0.2	116.999725	0.000000;	%	PEL
2	0.0	0.0	3	0.2	27.759506	0.000000;	%	NG
2	0.0	0.0	3	0.2	21.238147	0.000000;	%	COW
2	0.0	0.0	3	0.2	49.419174	0.000000;	%	NG
2	0.0	0.0	3	0.2	125.142988	0.000000;	%	PEL
2	0.0	0.0	3	0.2	33.921676	0.000000;	%	COW
2	0.0	0.0	3	0.2	34.799871	0.000000;	%	NG
2	0.0	0.0	3	0.2	28.781280	0.000000;	%	NG
2	0.0	0.0	3	0.2	37.793750	0.000000;	%	NG
2	0.0	0.0	3	0.2	26.464892	0.000000;	%	COW
2	0.0	0.0	3	0.2	40.321490	0.000000;	%	NG
2	0.0	0.0	3	0.2	36.682954	0.000000;	%	NG
2	0.0	0.0	3	0.2	118.446251	0.000000;	%	PEL
2	0.0	0.0	3	0.2	19.891648	0.000000;	%	COW
2	0.0	0.0	3	0.2	46.939814	0.000000;	%	NG
2	0.0	0.0	3	0.2	20.609107	0.000000;	%	NG
2	0.0	0.0	3	0.2	51.946595	0.000000;	%	NG
2	0.0	0.0	3	0.2	115.139292	0.000000;	%	PEL
2	0.0	0.0	3	0.2	38.381776	0.000000;	%	NG
2	0.0	0.0	3	0.2	30.397232	0.000000;	%	NG
2	0.0	0.0	3	0.2	7.117309	0.000000;	%	NUC
2	0.0	0.0	3	0.2	41.974613	0.000000;	%	COW
2	0.0	0.0	3	0.2	27.925312	0.000000;	%	NG
2	0.0	0.0	3	0.2	42.081347	0.000000;	%	NG
2	0.0	0.0	3	0.2	40.432203	0.000000;	%	NG
2	0.0	0.0	3	0.2	43.532489	0.000000;	%	NG
2	0.0	0.0	3	0.2	53.881410	0.000000;	%	NG
2	0.0	0.0	3	0.2	103.633060	0.000000;	%	PEL
2	0.0	0.0	3	0.2	23.935594	0.000000;	%	NG
2	0.0	0.0	3	0.2	122.171437	0.000000;	%	PEL
2	0.0	0.0	3	0.2	63.266585	0.000000;	%	NG
2	0.0	0.0	3	0.2	49.915606	0.000000;	%	NG
2	0.0	0.0	3	0.2	27.676646	0.000000;	%	NG
2	0.0	0.0	3	0.2	20.363747	0.000000;	%	NG
2	0.0	0.0	3	0.2	25.563811	0.000000;	%	COW
2	0.0	0.0	3	0.2	31.544193	0.000000;	%	NG
2	0.0	0.0	3	0.2	105.419125	0.000000;	%	PEL
2	0.0	0.0	3	0.2	45.262274	0.000000;	%	NG
2	0.0	0.0	3	0.2	45.018519	0.000000;	%	NG
2	0.0	0.0	3	0.2	123.633802	0.000000;	%	PEL
2	0.0	0.0	3	0.2	33.598512	0.000000;	%	NG
2	0.0	0.0	3	0.2	40.290814	0.000000;	%	NG
2	0.0	0.0	3	0.2	45.715203	0.000000;	%	NG
2	0.0	0.0	3	0.2	41.700445	0.000000;	%	NG
2	0.0	0.0	3	0.2	31.832551	0.000000;	%	NG
2	0.0	0.0	3	0.2	34.637815	0.000000;	%	NG
2	0.0	0.0	3	0.2	38.244354	0.000000;	%	NG
2	0.0	0.0	3	0.2	25.617682	0.000000;	%	COW
2	0.0	0.0	3	0.2	26.611750	0.000000;	%	COW
2	0.0	0.0	3	0.2	26.589244	0.000000;	%	NG
2	0.0	0.0	3	0.2	33.301644	0.000000;	%	NG
2	0.0	0.0	3	0.2	40.945757	0.000000;	%	NG
2	0.0	0.0	3	0.2	5.116384	0.000000;	%	NG
2	0.0	0.0	3	0.2	88.599633	0.000000;	%	PEL
2	0.0	0.0	3	0.2	33.247253	0.000000;	%	COW
2	0.0	0.0	3	0.2	36.486735	0.000000;	%	NG
2	0.0	0.0	3	0.2	105.413837	0.000000;	%	PEL
2	0.0	0.0	3	0.2	48.960239	0.000000;	%	NG
2	0.0	0.0	3	0.2	8.304805	0.000000;	%	NG
2	0.0	0.0	3	0.2	42.676707	0.000000;	%	NG
2	0.0	0.0	3	0.2	20.042020	0.000000;	%	NG
2	0.0	0.0	3	0.2	30.385882	0.000000;	%	COW
2	0.0	0.0	3	0.2	25.321525	0.000000;	%	COW
2	0.0	0.0	3	0.2	27.304206	0.000000;	%	NG
2	0.0	0.0	3	0.2	25.284434	0.000000;	%	NG
2	0.0	0.0	3	0.2	31.276404	0.000000;	%	COW
2	0.0	0.0	3	0.2	37.279277	0.000000;	%	NG
2	0.0	0.0	3	0.2	46.781751	0.000000;	%	NG
2	0.0	0.0	3	0.2	33.671522	0.000000;	%	COW
2	0.0	0.0	3	0.2	19.543519	0.000000;	%	NG
2	0.0	0.0	3	0.2	39.300841	0.000000;	%	NG
2	0.0	0.0	3	0.2	24.508809	0.000000;	%	NG
2	0.0	0.0	3	0.2	102.118437	0.000000;	%	PEL
2	0.0	0.0	3	0.2	25.764471	0.000000;	%	NG
2	0.0	0.0	3	0.2	24.735825	0.000000;	%	COW
2	0.0	0.0	3	0.2	29.483804	0.000000;	%	COW
2	0.0	0.0	3	0.2	17.836918	0.000000;	%	COW
2	0.0	0.0	3	0.2	6.191415	0.000000;	%	NG
2	0.0	0.0	3	0.2	20.535866	0.000000;	%	COW
2	0.0	0.0	3	0.2	9.033542	0.000000;	%	COW
2	0.0	0.0	3	0.2	31.037366	0.000000;	%	NG
2	0.0	0.0	3	0.2	26.150452	0.000000;	%	COW
2	0.0	0.0	3	0.2	35.879630	0.000000;	%	NG
2	0.0	0.0	3	0.2	42.884523	0.000000;	%	NG
2	0.0	0.0	3	0.2	25.752611	0.000000;	%	COW
2	0.0	0.0	3	0.2	30.263220	0.000000;	%	NG
2	0.0	0.0	3	0.2	36.168021	0.000000;	%	NG
2	0.0	0.0	3	0.2	34.641486	0.000000;	%	COW
2	0.0	0.0	3	0.2	39.185167	0.000000;	%	NG
2	0.0	0.0	3	0.2	15.657894	0.000000;	%	COW
2	0.0	0.0	3	0.2	25.598432	0.000000;	%	COW
2	0.0	0.0	3	0.2	16.446303	0.000000;	%	COW
2	0.0	0.0	3	0.2	22.990680	0.000000;	%	COW
2	0.0	0.0	3	0.2	18.450031	0.000000;	%	NG
2	0.0	0.0	3	0.2	22.144604	0.000000;	%	NG
2	0.0	0.0	3	0.2	39.181255	0.000000;	%	COW
2	0.0	0.0	3	0.2	36.412829	0.000000;	%	NG
2	0.0	0.0	3	0.2	27.748868	0.000000;	%	NG
2	0.0	0.0	3	0.2	108.451788	0.000000;	%	PEL
2	0.0	0.0	3	0.2	17.376283	0.000000;	%	COW
];

%% storage data
%	bus	energy	energy_rating	charge_rating	discharge_rating	thermal_rating	qmin	qmax	r	x	standby_loss	status
mpc.storage = [
	548	0.0	0.0	1.00	1880.2500	940.1250	676.8900	0.9	0.85	1000	-1000	1000	0.1	0.01	0	0	1;
	230	0.0	0.0	1.00	951.0000	475.5000	342.3600	0.9	0.85	1000	-1000	1000	0.1	0.01	0	0	1;
	544	0.0	0.0	1.00	859.4850	429.7425	309.4146	0.9	0.85	1000	-1000	1000	0.1	0.01	0	0	1;
	416	0.0	0.0	1.00	548.8500	274.4250	197.5860	0.9	0.85	1000	-1000	1000	0.1	0.01	0	0	1;
	560	0.0	0.0	1.00	477.7350	238.8675	171.9846	0.9	0.85	1000	-1000	1000	0.1	0.01	0	0	1;
	293	0.0	0.0	1.00	431.5350	215.7675	155.3526	0.9	0.85	1000	-1000	1000	0.1	0.01	0	0	1;
	538	0.0	0.0	1.00	409.5600	204.7800	147.4416	0.9	0.85	1000	-1000	1000	0.1	0.01	0	0	1;
	296	0.0	0.0	1.00	278.6250	139.3125	100.3050	0.9	0.85	1000	-1000	1000	0.1	0.01	0	0	1;
	555	0.0	0.0	1.00	225.1350	112.5675	81.0486	0.9	0.85	1000	-1000	1000	0.1	0.01	0	0	1;
	336	0.0	0.0	1.00	210.2100	105.1050	75.6756	0.9	0.85	1000	-1000	1000	0.1	0.01	0	0	1;
	199	0.0	0.0	1.00	194.2200	97.1100	69.9192	0.9	0.85	1000	-1000	1000	0.1	0.01	0	0	1;
	425	0.0	0.0	1.00	173.8350	86.9175	62.5806	0.9	0.85	1000	-1000	1000	0.1	0.01	0	0	1;
	559	0.0	0.0	1.00	164.2050	82.1025	59.1138	0.9	0.85	1000	-1000	1000	0.1	0.01	0	0	1;
	413	0.0	0.0	1.00	161.8350	80.9175	58.2606	0.9	0.85	1000	-1000	1000	0.1	0.01	0	0	1;
	376	0.0	0.0	1.00	157.3500	78.6750	56.6460	0.9	0.85	1000	-1000	1000	0.1	0.01	0	0	1;
	540	0.0	0.0	1.00	156.6450	78.3225	56.3922	0.9	0.85	1000	-1000	1000	0.1	0.01	0	0	1;
	578	0.0	0.0	1.00	155.9550	77.9775	56.1438	0.9	0.85	1000	-1000	1000	0.1	0.01	0	0	1;
	411	0.0	0.0	1.00	141.8850	70.9425	51.0786	0.9	0.85	1000	-1000	1000	0.1	0.01	0	0	1;
	1	0.0	0.0	1.00	134.6850	67.3425	48.4866	0.9	0.85	1000	-1000	1000	0.1	0.01	0	0	1;
	406	0.0	0.0	1.00	131.8650	65.9325	47.4714	0.9	0.85	1000	-1000	1000	0.1	0.01	0	0	1;
	208	0.0	0.0	1.00	124.5600	62.2800	44.8416	0.9	0.85	1000	-1000	1000	0.1	0.01	0	0	1;
	194	0.0	0.0	1.00	122.2500	61.1250	44.0100	0.9	0.85	1000	-1000	1000	0.1	0.01	0	0	1;
	219	0.0	0.0	1.00	120.9450	60.4725	43.5402	0.9	0.85	1000	-1000	1000	0.1	0.01	0	0	1;
	455	0.0	0.0	1.00	120.0000	60.0000	43.2000	0.9	0.85	1000	-1000	1000	0.1	0.01	0	0	1;
	409	0.0	0.0	1.00	119.1900	59.5950	42.9084	0.9	0.85	1000	-1000	1000	0.1	0.01	0	0	1;
	408	0.0	0.0	1.00	116.2200	58.1100	41.8392	0.9	0.85	1000	-1000	1000	0.1	0.01	0	0	1;
	153	0.0	0.0	1.00	109.9950	54.9975	39.5982	0.9	0.85	1000	-1000	1000	0.1	0.01	0	0	1;
	550	0.0	0.0	1.00	106.9650	53.4825	38.5074	0.9	0.85	1000	-1000	1000	0.1	0.01	0	0	1;
	414	0.0	0.0	1.00	106.5450	53.2725	38.3562	0.9	0.85	1000	-1000	1000	0.1	0.01	0	0	1;
	53	0.0	0.0	1.00	102.9900	51.4950	37.0764	0.9	0.85	1000	-1000	1000	0.1	0.01	0	0	1;
	118	0.0	0.0	1.00	102.9900	51.4950	37.0764	0.9	0.85	1000	-1000	1000	0.1	0.01	0	0	1;
	551	0.0	0.0	1.00	102.0900	51.0450	36.7524	0.9	0.85	1000	-1000	1000	0.1	0.01	0	0	1;
	268	0.0	0.0	1.00	100.6050	50.3025	36.2178	0.9	0.85	1000	-1000	1000	0.1	0.01	0	0	1;
	569	0.0	0.0	1.00	100.5000	50.2500	36.1800	0.9	0.85	1000	-1000	1000	0.1	0.01	0	0	1;
	573	0.0	0.0	1.00	95.0400	47.5200	34.2144	0.9	0.85	1000	-1000	1000	0.1	0.01	0	0	1;
	154	0.0	0.0	1.00	94.3500	47.1750	33.9660	0.9	0.85	1000	-1000	1000	0.1	0.01	0	0	1;
	88	0.0	0.0	1.00	92.2350	46.1175	33.2046	0.9	0.85	1000	-1000	1000	0.1	0.01	0	0	1;
	181	0.0	0.0	1.00	92.1600	46.0800	33.1776	0.9	0.85	1000	-1000	1000	0.1	0.01	0	0	1;
	221	0.0	0.0	1.00	91.9050	45.9525	33.0858	0.9	0.85	1000	-1000	1000	0.1	0.01	0	0	1;
	374	0.0	0.0	1.00	91.0350	45.5175	32.7726	0.9	0.85	1000	-1000	1000	0.1	0.01	0	0	1;
	547	0.0	0.0	1.00	90.0000	45.0000	32.4000	0.9	0.85	1000	-1000	1000	0.1	0.01	0	0	1;
	393	0.0	0.0	1.00	89.5050	44.7525	32.2218	0.9	0.85	1000	-1000	1000	0.1	0.01	0	0	1;
	214	0.0	0.0	1.00	82.4700	41.2350	29.6892	0.9	0.85	1000	-1000	1000	0.1	0.01	0	0	1;
	458	0.0	0.0	1.00	79.5000	39.7500	28.6200	0.9	0.85	1000	-1000	1000	0.1	0.01	0	0	1;
	17	0.0	0.0	1.00	79.0650	39.5325	28.4634	0.9	0.85	1000	-1000	1000	0.1	0.01	0	0	1;
	82	0.0	0.0	1.00	79.0650	39.5325	28.4634	0.9	0.85	1000	-1000	1000	0.1	0.01	0	0	1;
	210	0.0	0.0	1.00	75.3600	37.6800	27.1296	0.9	0.85	1000	-1000	1000	0.1	0.01	0	0	1;
	224	0.0	0.0	1.00	73.1850	36.5925	26.3466	0.9	0.85	1000	-1000	1000	0.1	0.01	0	0	1;
	375	0.0	0.0	1.00	72.5250	36.2625	26.1090	0.9	0.85	1000	-1000	1000	0.1	0.01	0	0	1;
	537	0.0	0.0	1.00	71.6400	35.8200	25.7904	0.9	0.85	1000	-1000	1000	0.1	0.01	0	0	1;
	365	0.0	0.0	1.00	71.4900	35.7450	25.7364	0.9	0.85	1000	-1000	1000	0.1	0.01	0	0	1;
	354	0.0	0.0	1.00	71.1000	35.5500	25.5960	0.9	0.85	1000	-1000	1000	0.1	0.01	0	0	1;
	366	0.0	0.0	1.00	70.0350	35.0175	25.2126	0.9	0.85	1000	-1000	1000	0.1	0.01	0	0	1;
	546	0.0	0.0	1.00	69.5400	34.7700	25.0344	0.9	0.85	1000	-1000	1000	0.1	0.01	0	0	1;
	469	0.0	0.0	1.00	67.3350	33.6675	24.2406	0.9	0.85	1000	-1000	1000	0.1	0.01	0	0	1;
	386	0.0	0.0	1.00	66.8100	33.4050	24.0516	0.9	0.85	1000	-1000	1000	0.1	0.01	0	0	1;
	179	0.0	0.0	1.00	66.4650	33.2325	23.9274	0.9	0.85	1000	-1000	1000	0.1	0.01	0	0	1;
	43	0.0	0.0	1.00	65.0700	32.5350	23.4252	0.9	0.85	1000	-1000	1000	0.1	0.01	0	0	1;
	108	0.0	0.0	1.00	64.6650	32.3325	23.2794	0.9	0.85	1000	-1000	1000	0.1	0.01	0	0	1;
];

%% branch data
%	fbus	tbus	r	x	b	rateA	rateB	rateC	ratio	angle	status	angmin	angmax
mpc.branch = [
	1	 10	 0.00186	 0.02155	 0.05317	 461.0	 461.0	 461.0	 0.0	 0.0	 1	 -30.0	 30.0;
	2	 3	 0.00051	 0.0275	 0.0	 400.0	 400.0	 400.0	 1.07702	 0.0	 1	 -30.0	 30.0;
	2	 17	 0.00568	 0.04215	 0.0716	 317.0	 317.0	 317.0	 0.0	 0.0	 1	 -30.0	 30.0;
	3	 14	 0.00131	 0.01547	 0.41152	 838.0	 838.0	 838.0	 0.0	 0.0	 1	 -30.0	 30.0;
	3	 70	 0.0001	 0.01	 0.0	 158.96	 190.75	 238.44	 0.0	 0.0	 1	 -30.0	 30.0;
	4	 5	 1e-05	 6e-05	 0.0	 1593.0	 1593.0	 1593.0	 0.0	 0.0	 1	 -30.0	 30.0;
	6	 4	 0.00084	 0.06858	 0.0	 250.0	 250.0	 250.0	 0.9999	 0.0	 1	 -30.0	 30.0;
	4	 65	 0.00033	 0.00388	 0.10475	 831.0	 831.0	 831.0	 0.0	 0.0	 1	 -30.0	 30.0;
	4	 77	 0.0001	 0.01	 0.0	 126.64	 151.97	 189.97	 0.0	 0.0	 1	 -30.0	 30.0;
	5	 12	 0.0024	 0.02795	 0.75408	 838.0	 838.0	 838.0	 0.0	 0.0	 1	 -30.0	 30.0;
	5	 16	 0.00133	 0.01553	 0.41898	 831.0	 831.0	 831.0	 0.0	 0.0	 1	 -30.0	 30.0;
	5	 68	 0.0001	 0.01	 0.0	 149.53	 179.43	 224.29	 0.0	 0.0	 1	 -30.0	 30.0;
	23	 6	 0.00044	 -0.00422	 0.0	 250.0	 250.0	 250.0	 1.06772	 0.0	 1	 -30.0	 30.0;
	24	 6	 0.00496	 0.06982	 0.0	 64.99	 84.49	 84.49	 0.98438	 0.0	 1	 -30.0	 30.0;
	7	 8	 2e-05	 0.00021	 0.0	 876.0	 876.0	 876.0	 0.0	 0.0	 1	 -30.0	 30.0;
	7	 10	 0.02738	 0.14254	 0.20047	 222.0	 222.0	 222.0	 0.0	 0.0	 1	 -30.0	 30.0;
	25	 7	 0.00015	 0.06524	 0.0	 160.0	 160.0	 160.0	 1.07325	 0.0	 1	 -30.0	 30.0;
	8	 17	 0.01909	 0.11277	 0.16673	 197.0	 197.0	 197.0	 0.0	 0.0	 1	 -30.0	 30.0;
	26	 8	 0.00027	 0.06715	 0.0	 160.0	 160.0	 160.0	 1.08282	 0.0	 1	 -30.0	 30.0;
	9	 10	 2e-05	 0.00021	 0.0	 876.0	 876.0	 876.0	 0.0	 0.0	 1	 -30.0	 30.0;
	9	 76	 0.0001	 0.01	 0.0	 83.7	 98.6	 125.55	 0.0	 0.0	 1	 -30.0	 30.0;
	11	 10	 0.00076	 0.0789	 0.0	 243.53	 316.58	 316.58	 0.9999	 0.0	 1	 -30.0	 30.0;
	10	 66	 0.0001	 0.01	 0.0	 83.7	 98.6	 125.55	 0.0	 0.0	 1	 -30.0	 30.0;
	33	 11	 -0.00017	 0.16709	 0.0	 260.0	 312.0	 390.0	 0.94157	 0.0	 1	 -30.0	 30.0;
	11	 75	 0.0001	 0.01	 0.0	 83.7	 98.6	 125.55	 0.0	 0.0	 1	 -30.0	 30.0;
	12	 69	 0.0001	 0.01	 0.0	 129.32	 155.19	 193.98	 0.0	 0.0	 1	 -30.0	 30.0;
	13	 14	 1e-05	 6e-05	 0.0	 1593.0	 1593.0	 1593.0	 0.0	 0.0	 1	 -30.0	 30.0;
	13	 15	 0.0015	 0.01768	 0.46944	 831.0	 831.0	 831.0	 0.0	 0.0	 1	 -30.0	 30.0;
	52	 13	 0.00059	 0.04206	 0.0	 330.0	 330.0	 330.0	 1.04877	 0.0	 1	 -30.0	 30.0;
	15	 16	 1e-05	 6e-05	 0.0	 1593.0	 1593.0	 1593.0	 0.0	 0.0	 1	 -30.0	 30.0;
	63	 15	 0.00137	 0.05969	 0.0	 250.0	 250.0	 250.0	 1.05449	 0.0	 1	 -30.0	 30.0;
	64	 15	 0.00137	 0.05969	 0.0	 250.0	 250.0	 250.0	 1.05312	 0.0	 1	 -30.0	 30.0;
	15	 65	 0.001	 0.01165	 0.31426	 831.0	 831.0	 831.0	 0.0	 0.0	 1	 -30.0	 30.0;
	18	 37	 0.021	 0.0679	 0.00696	 101.0	 101.0	 101.0	 0.0	 0.0	 1	 -30.0	 30.0;
	18	 63	 0.02139	 0.06954	 0.00729	 120.0	 120.0	 120.0	 0.0	 0.0	 1	 -30.0	 30.0;
	19	 20	 8e-05	 0.00083	 0.0	 438.0	 438.0	 438.0	 0.0	 0.0	 1	 -30.0	 30.0;
	19	 25	 0.03025	 0.09752	 0.01002	 86.0	 86.0	 86.0	 0.0	 0.0	 1	 -30.0	 30.0;
	19	 28	 0.00983	 0.01736	 0.0016	 137.0	 137.0	 137.0	 0.0	 0.0	 1	 -30.0	 30.0;
	19	 63	 0.03669	 0.11818	 0.01217	 123.0	 123.0	 123.0	 0.0	 0.0	 1	 -30.0	 30.0;
	20	 42	 0.00711	 0.02314	 0.00234	 124.0	 124.0	 124.0	 0.0	 0.0	 1	 -30.0	 30.0;
	20	 48	 0.00331	 0.01074	 0.00109	 137.0	 137.0	 137.0	 0.0	 0.0	 1	 -30.0	 30.0;
	21	 25	 0.01116	 0.01529	 0.00275	 114.0	 114.0	 114.0	 0.0	 0.0	 1	 -30.0	 30.0;
	21	 40	 0.01116	 0.01529	 0.00275	 114.0	 114.0	 114.0	 0.0	 0.0	 1	 -30.0	 30.0;
	22	 37	 0.0405	 0.07107	 0.00673	 59.55	 71.46	 89.33	 0.0	 0.0	 1	 -30.0	 30.0;
	22	 51	 0.04628	 0.07107	 0.0076	 67.92	 81.51	 101.88	 0.0	 0.0	 1	 -30.0	 30.0;
	23	 39	 0.00124	 0.00413	 0.00039	 128.0	 128.0	 128.0	 0.0	 0.0	 1	 -30.0	 30.0;
	23	 43	 0.00793	 0.02231	 0.00215	 123.0	 123.0	 123.0	 0.0	 0.0	 1	 -30.0	 30.0;
	23	 45	 0.00124	 0.00413	 0.00041	 170.12	 204.15	 255.18	 0.0	 0.0	 1	 -30.0	 30.0;
	23	 514	 0.0001	 0.01	 0.0	 229.86	 275.83	 344.79	 0.0	 0.0	 1	 -30.0	 30.0;
	25	 49	 0.00124	 0.00413	 0.00039	 128.0	 128.0	 128.0	 0.0	 0.0	 1	 -30.0	 30.0;
	25	 61	 0.01977	 0.06457	 0.00658	 123.0	 123.0	 123.0	 0.0	 0.0	 1	 -30.0	 30.0;
	25	 62	 0.00218	 0.00712	 0.00073	 123.0	 123.0	 123.0	 0.0	 0.0	 1	 -30.0	 30.0;
	26	 35	 0.0065	 0.02121	 0.00216	 123.0	 123.0	 123.0	 0.0	 0.0	 1	 -30.0	 30.0;
	26	 119	 0.0001	 0.01	 0.0	 170.58	 204.7	 255.87	 0.0	 0.0	 1	 -30.0	 30.0;
	27	 28	 8e-05	 0.00083	 0.0	 438.0	 438.0	 438.0	 0.0	 0.0	 1	 -30.0	 30.0;
	27	 32	 0.00124	 0.00413	 0.00039	 128.0	 128.0	 128.0	 0.0	 0.0	 1	 -30.0	 30.0;
	27	 56	 0.00099	 0.00347	 0.00036	 137.0	 137.0	 137.0	 0.0	 0.0	 1	 -30.0	 30.0;
	27	 61	 0.01083	 0.03471	 0.00358	 137.0	 137.0	 137.0	 0.0	 0.0	 1	 -30.0	 30.0;
	28	 31	 0.00496	 0.01273	 0.00128	 95.0	 95.0	 95.0	 0.0	 0.0	 1	 -30.0	 30.0;
	28	 55	 0.00124	 0.00413	 0.00039	 128.0	 128.0	 128.0	 0.0	 0.0	 1	 -30.0	 30.0;
	29	 30	 0.00142	 0.00465	 0.00047	 123.0	 123.0	 123.0	 0.0	 0.0	 1	 -30.0	 30.0;
	29	 58	 0.00408	 0.01332	 0.00136	 123.0	 123.0	 123.0	 0.0	 0.0	 1	 -30.0	 30.0;
	30	 64	 0.01705	 0.05552	 0.00567	 137.0	 137.0	 137.0	 0.0	 0.0	 1	 -30.0	 30.0;
	31	 46	 0.00372	 0.00934	 0.00094	 120.0	 120.0	 120.0	 0.0	 0.0	 1	 -30.0	 30.0;
	32	 55	 0.00124	 0.00413	 0.00039	 128.0	 128.0	 128.0	 0.0	 0.0	 1	 -30.0	 30.0;
	34	 62	 0.00133	 0.00434	 0.00044	 123.0	 123.0	 123.0	 0.0	 0.0	 1	 -30.0	 30.0;
	36	 42	 0.00289	 0.00926	 0.00094	 137.0	 137.0	 137.0	 0.0	 0.0	 1	 -30.0	 30.0;
	36	 56	 0.00207	 0.00694	 0.0007	 137.0	 137.0	 137.0	 0.0	 0.0	 1	 -30.0	 30.0;
	37	 38	 0.00413	 0.01372	 0.00138	 62.0	 62.0	 62.0	 0.0	 0.0	 1	 -30.0	 30.0;
	38	 60	 0.03438	 0.06099	 0.00569	 62.0	 62.0	 62.0	 0.0	 0.0	 1	 -30.0	 30.0;
	39	 40	 8e-05	 0.00083	 0.0	 438.0	 438.0	 438.0	 0.0	 0.0	 1	 -30.0	 30.0;
	39	 41	 0.00124	 0.00413	 0.00039	 128.0	 128.0	 128.0	 0.0	 0.0	 1	 -30.0	 30.0;
	40	 41	 0.00124	 0.00413	 0.00039	 128.0	 128.0	 128.0	 0.0	 0.0	 1	 -30.0	 30.0;
	44	 60	 0.0395	 0.1281	 0.01314	 62.0	 62.0	 62.0	 0.0	 0.0	 1	 -30.0	 30.0;
	44	 64	 0.00165	 0.00496	 0.00053	 137.0	 137.0	 137.0	 0.0	 0.0	 1	 -30.0	 30.0;
	46	 62	 0.0235	 0.07683	 0.00783	 123.0	 123.0	 123.0	 0.0	 0.0	 1	 -30.0	 30.0;
	47	 48	 0.00645	 0.02066	 0.00213	 137.0	 137.0	 137.0	 0.0	 0.0	 1	 -30.0	 30.0;
	47	 58	 0.04174	 0.07322	 0.00692	 90.0	 90.0	 90.0	 0.0	 0.0	 1	 -30.0	 30.0;
	47	 59	 0.01132	 0.03636	 0.00375	 137.0	 137.0	 137.0	 0.0	 0.0	 1	 -30.0	 30.0;
	50	 52	 0.04351	 0.09356	 0.00962	 54.76	 71.18	 71.18	 0.0	 0.0	 1	 -30.0	 30.0;
	51	 54	 0.01653	 0.03306	 0.00242	 62.58	 75.1	 93.87	 0.0	 0.0	 1	 -30.0	 30.0;
	52	 53	 8e-05	 0.00083	 0.0	 438.0	 438.0	 438.0	 0.0	 0.0	 1	 -30.0	 30.0;
	52	 57	 0.02394	 0.04718	 0.00469	 58.83	 76.48	 76.48	 0.0	 0.0	 1	 -30.0	 30.0;
	54	 432	 0.0001	 0.01	 0.0	 193.33	 231.99	 289.99	 0.0	 0.0	 1	 -30.0	 30.0;
	59	 63	 0.01721	 0.05623	 0.00573	 140.0	 140.0	 140.0	 0.0	 0.0	 1	 -30.0	 30.0;
	63	 64	 8e-05	 0.00083	 0.0	 438.0	 438.0	 438.0	 0.0	 0.0	 1	 -30.0	 30.0;
	66	 75	 0.00186	 0.02155	 0.05317	 461.0	 461.0	 461.0	 0.0	 0.0	 1	 -30.0	 30.0;
	67	 68	 0.00051	 0.0275	 0.0	 400.0	 400.0	 400.0	 1.07702	 0.0	 1	 -30.0	 30.0;
	67	 82	 0.00568	 0.04215	 0.0716	 317.0	 317.0	 317.0	 0.0	 0.0	 1	 -30.0	 30.0;
	68	 79	 0.00131	 0.01547	 0.41152	 838.0	 838.0	 838.0	 0.0	 0.0	 1	 -30.0	 30.0;
	69	 70	 1e-05	 6e-05	 0.0	 1593.0	 1593.0	 1593.0	 0.0	 0.0	 1	 -30.0	 30.0;
	71	 69	 0.00084	 0.06858	 0.0	 250.0	 250.0	 250.0	 0.9999	 0.0	 1	 -30.0	 30.0;
	69	 130	 0.00033	 0.00388	 0.10475	 831.0	 831.0	 831.0	 0.0	 0.0	 1	 -30.0	 30.0;
	70	 77	 0.0024	 0.02795	 0.75408	 838.0	 838.0	 838.0	 0.0	 0.0	 1	 -30.0	 30.0;
	70	 81	 0.00133	 0.01553	 0.41898	 831.0	 831.0	 831.0	 0.0	 0.0	 1	 -30.0	 30.0;
...